/*---------------------------------------------------------------------------*\
| =========                 |                                                 |
| \\      /  F ield         | OpenFOAM: The Open Source CFD Toolbox           |
|  \\    /   O peration     | Version:  v1706                                 |
|   \\  /    A nd           | Web:      www.OpenFOAM.com                      |
|    \\/     M anipulation  |                                                 |
\*---------------------------------------------------------------------------*/
Build  : v1706
Arch   : "LSB;label=32;scalar=64"
Exec   : checkMesh
Date   : Jun 12 2025
Time   : 12:41:44
Host   : "d50077dcd431"
PID    : 56619
Case   : /home/devuser/workspace/hyStrath/run/hyStrath/hy2Foam/bluntedCone
nProcs : 1
sigFpe : Enabling floating point exception trapping (FOAM_SIGFPE).
fileModificationChecking : Monitoring run-time modified files using timeStampMaster (fileModificationSkew 10)
allowSystemOperations : Allowing user-supplied system call operations

// * * * * * * * * * * * * * * * * * * * * * * * * * * * * * * * * * * * * * //
Create time

Create mesh for time = 0

--> FOAM Warning : 
    From function virtual void Foam::wedgePolyPatch::calcGeometry(Foam::PstreamBuffers&)
    in file meshes/polyMesh/polyPatches/constraint/wedge/wedgePolyPatch.C at line 70
    Wedge patch 'rWedge' is not planar.
At local face at (0.0116936 0.0048636 0.000169841) the normal (-2.13284e-08 -0.0348995 0.999391) differs from the average normal (-4.5879e-12 -0.0348995 0.999391) by 1.09378e-15
Either correct the patch or split it into planar parts
--> FOAM Warning : 
    From function virtual void Foam::wedgePolyPatch::calcGeometry(Foam::PstreamBuffers&)
    in file meshes/polyMesh/polyPatches/constraint/wedge/wedgePolyPatch.C at line 70
    Wedge patch 'rWedge' is not planar.
At local face at (0.0120766 0.00515887 0.000180152) the normal (1.9366e-08 -0.0348995 0.999391) differs from the average normal (-4.5879e-12 -0.0348995 0.999391) by 1.03783e-15
Either correct the patch or split it into planar parts
--> FOAM Warning : 
    From function virtual void Foam::wedgePolyPatch::calcGeometry(Foam::PstreamBuffers&)
    in file meshes/polyMesh/polyPatches/constraint/wedge/wedgePolyPatch.C at line 70
    Wedge patch 'rWedge' is not planar.
At local face at (0.0106252 0.00367889 0.00012847) the normal (2.7589e-08 -0.0348995 0.999391) differs from the average normal (-4.5879e-12 -0.0348995 0.999391) by 1.13565e-15
Either correct the patch or split it into planar parts
--> FOAM Warning : 
    From function virtual void Foam::wedgePolyPatch::calcGeometry(Foam::PstreamBuffers&)
    in file meshes/polyMesh/polyPatches/constraint/wedge/wedgePolyPatch.C at line 70
    Wedge patch 'rWedge' is not planar.
At local face at (0.010292 0.00314263 0.000109743) the normal (-3.14129e-08 -0.0348995 0.999391) differs from the average normal (-4.5879e-12 -0.0348995 0.999391) by 1.32001e-15
Either correct the patch or split it into planar parts
--> FOAM Warning : 
    From function virtual void Foam::wedgePolyPatch::calcGeometry(Foam::PstreamBuffers&)
    in file meshes/polyMesh/polyPatches/constraint/wedge/wedgePolyPatch.C at line 70
    Wedge patch 'rWedge' is not planar.
At local face at (0.0115376 0.00470332 0.000164243) the normal (-2.24138e-08 -0.0348995 0.999391) differs from the average normal (-4.5879e-12 -0.0348995 0.999391) by 1.11472e-15
Either correct the patch or split it into planar parts
--> FOAM Warning : 
    From function virtual void Foam::wedgePolyPatch::calcGeometry(Foam::PstreamBuffers&)
    in file meshes/polyMesh/polyPatches/constraint/wedge/wedgePolyPatch.C at line 70
    Wedge patch 'rWedge' is not planar.
At local face at (0.0127765 0.00557958 0.000194843) the normal (-1.7884e-08 -0.0348995 0.999391) differs from the average normal (-4.5879e-12 -0.0348995 0.999391) by 1.33739e-15
Either correct the patch or split it into planar parts
--> FOAM Warning : 
    From function virtual void Foam::wedgePolyPatch::calcGeometry(Foam::PstreamBuffers&)
    in file meshes/polyMesh/polyPatches/constraint/wedge/wedgePolyPatch.C at line 70
    Wedge patch 'rWedge' is not planar.
At local face at (0.0126166 0.0054858 0.000191568) the normal (-1.69882e-08 -0.0348995 0.999391) differs from the average normal (-4.5879e-12 -0.0348995 0.999391) by 1.18064e-15
Either correct the patch or split it into planar parts
--> FOAM Warning : 
    From function virtual void Foam::wedgePolyPatch::calcGeometry(Foam::PstreamBuffers&)
    in file meshes/polyMesh/polyPatches/constraint/wedge/wedgePolyPatch.C at line 70
    Wedge patch 'rWedge' is not planar.
At local face at (0.0111548 0.00429974 0.00015015) the normal (2.66771e-08 -0.0348995 0.999391) differs from the average normal (-4.5879e-12 -0.0348995 0.999391) by 1.24799e-15
Either correct the patch or split it into planar parts
--> FOAM Warning : 
    From function virtual void Foam::wedgePolyPatch::calcGeometry(Foam::PstreamBuffers&)
    in file meshes/polyMesh/polyPatches/constraint/wedge/wedgePolyPatch.C at line 70
    Wedge patch 'rWedge' is not planar.
At local face at (0.0118567 0.00495771 0.000173127) the normal (2.2954e-08 -0.0348995 0.999391) differs from the average normal (-4.5879e-12 -0.0348995 0.999391) by 1.34499e-15
Either correct the patch or split it into planar parts
--> FOAM Warning : 
    From function virtual void Foam::wedgePolyPatch::calcGeometry(Foam::PstreamBuffers&)
    in file meshes/polyMesh/polyPatches/constraint/wedge/wedgePolyPatch.C at line 70
    Wedge patch 'rWedge' is not planar.
At local face at (0.0102379 0.00300315 0.000104872) the normal (2.7971e-08 -0.0348995 0.999391) differs from the average normal (-4.5879e-12 -0.0348995 0.999391) by 1.02296e-15
Either correct the patch or split it into planar parts
--> FOAM Warning : 
    From function virtual void Foam::wedgePolyPatch::calcGeometry(Foam::PstreamBuffers&)
    in file meshes/polyMesh/polyPatches/constraint/wedge/wedgePolyPatch.C at line 70
    Wedge patch 'rWedge' is not planar.
At local face at (0.0111068 0.00424331 0.00014818) the normal (2.36077e-08 -0.0348995 0.999391) differs from the average normal (-4.5879e-12 -0.0348995 0.999391) by 1.00556e-15
Either correct the patch or split it into planar parts
--> FOAM Warning : 
    From function virtual void Foam::wedgePolyPatch::calcGeometry(Foam::PstreamBuffers&)
    in file meshes/polyMesh/polyPatches/constraint/wedge/wedgePolyPatch.C at line 70
    Wedge patch 'rWedge' is not planar.
At local face at (0.0118582 0.00495591 0.000173064) the normal (-2.15392e-08 -0.0348995 0.999391) differs from the average normal (-4.5879e-12 -0.0348995 0.999391) by 1.19092e-15
Either correct the patch or split it into planar parts
--> FOAM Warning : 
    From function virtual void Foam::wedgePolyPatch::calcGeometry(Foam::PstreamBuffers&)
    in file meshes/polyMesh/polyPatches/constraint/wedge/wedgePolyPatch.C at line 70
    Wedge patch 'rWedge' is not planar.
At local face at (0.012651 0.00550047 0.00019208) the normal (1.71631e-08 -0.0348995 0.999391) differs from the average normal (-4.5879e-12 -0.0348995 0.999391) by 1.07708e-15
Either correct the patch or split it into planar parts
--> FOAM Warning : 
    From function virtual void Foam::wedgePolyPatch::calcGeometry(Foam::PstreamBuffers&)
    in file meshes/polyMesh/polyPatches/constraint/wedge/wedgePolyPatch.C at line 70
    Wedge patch 'rWedge' is not planar.
At local face at (0.0120945 0.00513432 0.000179294) the normal (2.14859e-08 -0.0348995 0.999391) differs from the average normal (-4.5879e-12 -0.0348995 0.999391) by 1.40409e-15
Either correct the patch or split it into planar parts
--> FOAM Warning : 
    From function virtual void Foam::wedgePolyPatch::calcGeometry(Foam::PstreamBuffers&)
    in file meshes/polyMesh/polyPatches/constraint/wedge/wedgePolyPatch.C at line 70
    Wedge patch 'rWedge' is not planar.
At local face at (0.0127164 0.00553532 0.000193297) the normal (-1.65907e-08 -0.0348995 0.999391) differs from the average normal (-4.5879e-12 -0.0348995 0.999391) by 1.07021e-15
Either correct the patch or split it into planar parts
--> FOAM Warning : 
    From function virtual void Foam::wedgePolyPatch::calcGeometry(Foam::PstreamBuffers&)
    in file meshes/polyMesh/polyPatches/constraint/wedge/wedgePolyPatch.C at line 70
    Wedge patch 'rWedge' is not planar.
At local face at (0.0131448 0.00575411 0.000200938) the normal (-1.50136e-08 -0.0348995 0.999391) differs from the average normal (-4.5879e-12 -0.0348995 0.999391) by 1.0792e-15
Either correct the patch or split it into planar parts
--> FOAM Warning : 
    From function virtual void Foam::wedgePolyPatch::calcGeometry(Foam::PstreamBuffers&)
    in file meshes/polyMesh/polyPatches/constraint/wedge/wedgePolyPatch.C at line 70
    Wedge patch 'rWedge' is not planar.
At local face at (0.0128808 0.00562016 0.00019626) the normal (-1.71245e-08 -0.0348995 0.999391) differs from the average normal (-4.5879e-12 -0.0348995 0.999391) by 1.34794e-15
Either correct the patch or split it into planar parts
--> FOAM Warning : 
    From function virtual void Foam::wedgePolyPatch::calcGeometry(Foam::PstreamBuffers&)
    in file meshes/polyMesh/polyPatches/constraint/wedge/wedgePolyPatch.C at line 70
    Wedge patch 'rWedge' is not planar.
At local face at (0.0130125 0.00568769 0.000198618) the normal (-1.55914e-08 -0.0348995 0.999391) differs from the average normal (-4.5879e-12 -0.0348995 0.999391) by 1.18862e-15
Either correct the patch or split it into planar parts
--> FOAM Warning : 
    From function virtual void Foam::wedgePolyPatch::calcGeometry(Foam::PstreamBuffers&)
    in file meshes/polyMesh/polyPatches/constraint/wedge/wedgePolyPatch.C at line 70
    Wedge patch 'rWedge' is not planar.
At local face at (0.0101942 0.00290078 0.000101298) the normal (2.83645e-08 -0.0348995 0.999391) differs from the average normal (-4.5879e-12 -0.0348995 0.999391) by 1.00803e-15
Either correct the patch or split it into planar parts
--> FOAM Warning : 
    From function virtual void Foam::wedgePolyPatch::calcGeometry(Foam::PstreamBuffers&)
    in file meshes/polyMesh/polyPatches/constraint/wedge/wedgePolyPatch.C at line 70
    Wedge patch 'rWedge' is not planar.
At local face at (0.0106961 0.0037194 0.000129884) the normal (-2.64401e-08 -0.0348995 0.999391) differs from the average normal (-4.5879e-12 -0.0348995 0.999391) by 1.04409e-15
Either correct the patch or split it into planar parts
--> FOAM Warning : 
    From function virtual void Foam::wedgePolyPatch::calcGeometry(Foam::PstreamBuffers&)
    in file meshes/polyMesh/polyPatches/constraint/wedge/wedgePolyPatch.C at line 70
    Wedge patch 'rWedge' is not planar.
At local face at (0.0114207 0.00455731 0.000159145) the normal (-2.49571e-08 -0.0348995 0.999391) differs from the average normal (-4.5879e-12 -0.0348995 0.999391) by 1.31061e-15
Either correct the patch or split it into planar parts
--> FOAM Warning : 
    From function virtual void Foam::wedgePolyPatch::calcGeometry(Foam::PstreamBuffers&)
    in file meshes/polyMesh/polyPatches/constraint/wedge/wedgePolyPatch.C at line 70
    Wedge patch 'rWedge' is not planar.
At local face at (0.0119216 0.00499505 0.000174431) the normal (-2.10581e-08 -0.0348995 0.999391) differs from the average normal (-4.5879e-12 -0.0348995 0.999391) by 1.22489e-15
Either correct the patch or split it into planar parts
--> FOAM Warning : 
    From function virtual void Foam::wedgePolyPatch::calcGeometry(Foam::PstreamBuffers&)
    in file meshes/polyMesh/polyPatches/constraint/wedge/wedgePolyPatch.C at line 70
    Wedge patch 'rWedge' is not planar.
At local face at (0.0119507 0.00501781 0.000175226) the normal (-2.20771e-08 -0.0348995 0.999391) differs from the average normal (-4.5879e-12 -0.0348995 0.999391) by 1.33935e-15
Either correct the patch or split it into planar parts
--> FOAM Warning : 
    From function virtual void Foam::wedgePolyPatch::calcGeometry(Foam::PstreamBuffers&)
    in file meshes/polyMesh/polyPatches/constraint/wedge/wedgePolyPatch.C at line 70
    Wedge patch 'rWedge' is not planar.
At local face at (0.0105918 0.00356684 0.000124557) the normal (-2.73941e-08 -0.0348995 0.999391) differs from the average normal (-4.5879e-12 -0.0348995 0.999391) by 1.04984e-15
Either correct the patch or split it into planar parts
--> FOAM Warning : 
    From function virtual void Foam::wedgePolyPatch::calcGeometry(Foam::PstreamBuffers&)
    in file meshes/polyMesh/polyPatches/constraint/wedge/wedgePolyPatch.C at line 70
    Wedge patch 'rWedge' is not planar.
At local face at (0.0119229 0.0049934 0.000174374) the normal (2.21503e-08 -0.0348995 0.999391) differs from the average normal (-4.5879e-12 -0.0348995 0.999391) by 1.25538e-15
Either correct the patch or split it into planar parts
--> FOAM Warning : 
    From function virtual void Foam::wedgePolyPatch::calcGeometry(Foam::PstreamBuffers&)
    in file meshes/polyMesh/polyPatches/constraint/wedge/wedgePolyPatch.C at line 70
    Wedge patch 'rWedge' is not planar.
At local face at (0.011952 0.00501615 0.000175168) the normal (2.15188e-08 -0.0348995 0.999391) differs from the average normal (-4.5879e-12 -0.0348995 0.999391) by 1.16915e-15
Either correct the patch or split it into planar parts
--> FOAM Warning : 
    From function virtual void Foam::wedgePolyPatch::calcGeometry(Foam::PstreamBuffers&)
    in file meshes/polyMesh/polyPatches/constraint/wedge/wedgePolyPatch.C at line 70
    Wedge patch 'rWedge' is not planar.
At local face at (0.0101979 0.00289889 0.000101231) the normal (-3.022e-08 -0.0348995 0.999391) differs from the average normal (-4.5879e-12 -0.0348995 0.999391) by 1.16548e-15
Either correct the patch or split it into planar parts
--> FOAM Warning : 
    From function virtual void Foam::wedgePolyPatch::calcGeometry(Foam::PstreamBuffers&)
    in file meshes/polyMesh/polyPatches/constraint/wedge/wedgePolyPatch.C at line 70
    Wedge patch 'rWedge' is not planar.
At local face at (0.0119533 0.00501453 0.000175111) the normal (-1.99359e-08 -0.0348995 0.999391) differs from the average normal (-4.5879e-12 -0.0348995 0.999391) by 1.09144e-15
Either correct the patch or split it into planar parts
--> FOAM Warning : 
    From function virtual void Foam::wedgePolyPatch::calcGeometry(Foam::PstreamBuffers&)
    in file meshes/polyMesh/polyPatches/constraint/wedge/wedgePolyPatch.C at line 70
    Wedge patch 'rWedge' is not planar.
At local face at (0.0104349 0.00331635 0.00011581) the normal (-2.80969e-08 -0.0348995 0.999391) differs from the average normal (-4.5879e-12 -0.0348995 0.999391) by 1.05949e-15
Either correct the patch or split it into planar parts
--> FOAM Warning : 
    From function virtual void Foam::wedgePolyPatch::calcGeometry(Foam::PstreamBuffers&)
    in file meshes/polyMesh/polyPatches/constraint/wedge/wedgePolyPatch.C at line 70
    Wedge patch 'rWedge' is not planar.
At local face at (0.0107447 0.0037754 0.00013184) the normal (2.98564e-08 -0.0348995 0.999391) differs from the average normal (-4.5879e-12 -0.0348995 0.999391) by 1.34417e-15
Either correct the patch or split it into planar parts
--> FOAM Warning : 
    From function virtual void Foam::wedgePolyPatch::calcGeometry(Foam::PstreamBuffers&)
    in file meshes/polyMesh/polyPatches/constraint/wedge/wedgePolyPatch.C at line 70
    Wedge patch 'rWedge' is not planar.
At local face at (0.0113202 0.00444874 0.000155354) the normal (-2.40267e-08 -0.0348995 0.999391) differs from the average normal (-4.5879e-12 -0.0348995 0.999391) by 1.09747e-15
Either correct the patch or split it into planar parts
--> FOAM Warning : 
    From function virtual void Foam::wedgePolyPatch::calcGeometry(Foam::PstreamBuffers&)
    in file meshes/polyMesh/polyPatches/constraint/wedge/wedgePolyPatch.C at line 70
    Wedge patch 'rWedge' is not planar.
At local face at (0.0119254 0.0049902 0.000174262) the normal (2.40165e-08 -0.0348995 0.999391) differs from the average normal (-4.5879e-12 -0.0348995 0.999391) by 1.52812e-15
Either correct the patch or split it into planar parts
--> FOAM Warning : 
    From function virtual void Foam::wedgePolyPatch::calcGeometry(Foam::PstreamBuffers&)
    in file meshes/polyMesh/polyPatches/constraint/wedge/wedgePolyPatch.C at line 70
    Wedge patch 'rWedge' is not planar.
At local face at (0.0127548 0.00554233 0.000193542) the normal (-2.02375e-08 -0.0348995 0.999391) differs from the average normal (-4.5879e-12 -0.0348995 0.999391) by 1.73114e-15
Either correct the patch or split it into planar parts
--> FOAM Warning : 
    From function virtual void Foam::wedgePolyPatch::calcGeometry(Foam::PstreamBuffers&)
    in file meshes/polyMesh/polyPatches/constraint/wedge/wedgePolyPatch.C at line 70
    Wedge patch 'rWedge' is not planar.
At local face at (0.0241488 0.0111874 0.000390672) the normal (1.42986e-08 -0.0348995 0.999391) differs from the average normal (-4.5879e-12 -0.0348995 0.999391) by 1.16257e-15
Either correct the patch or split it into planar parts
--> FOAM Warning : 
    From function virtual void Foam::wedgePolyPatch::calcGeometry(Foam::PstreamBuffers&)
    in file meshes/polyMesh/polyPatches/constraint/wedge/wedgePolyPatch.C at line 70
    Wedge patch 'rWedge' is not planar.
At local face at (0.0231023 0.0106891 0.000373273) the normal (1.52165e-08 -0.0348995 0.999391) differs from the average normal (-4.5879e-12 -0.0348995 0.999391) by 1.2335e-15
Either correct the patch or split it into planar parts
--> FOAM Warning : 
    From function virtual void Foam::wedgePolyPatch::calcGeometry(Foam::PstreamBuffers&)
    in file meshes/polyMesh/polyPatches/constraint/wedge/wedgePolyPatch.C at line 70
    Wedge patch 'rWedge' is not planar.
At local face at (0.0225631 0.0104285 0.00036417) the normal (1.51315e-08 -0.0348995 0.999391) differs from the average normal (-4.5879e-12 -0.0348995 0.999391) by 1.23049e-15
Either correct the patch or split it into planar parts
--> FOAM Warning : 
    From function virtual void Foam::wedgePolyPatch::calcGeometry(Foam::PstreamBuffers&)
    in file meshes/polyMesh/polyPatches/constraint/wedge/wedgePolyPatch.C at line 70
    Wedge patch 'rWedge' is not planar.
At local face at (0.0246584 0.0114082 0.000398382) the normal (-1.46967e-08 -0.0348995 0.999391) differs from the average normal (-4.5879e-12 -0.0348995 0.999391) by 1.21175e-15
Either correct the patch or split it into planar parts
--> FOAM Warning : 
    From function virtual void Foam::wedgePolyPatch::calcGeometry(Foam::PstreamBuffers&)
    in file meshes/polyMesh/polyPatches/constraint/wedge/wedgePolyPatch.C at line 70
    Wedge patch 'rWedge' is not planar.
At local face at (0.0377497 0.0175292 0.000612132) the normal (1.40045e-08 -0.0348995 0.999391) differs from the average normal (-4.5879e-12 -0.0348995 0.999391) by 1.08115e-15
Either correct the patch or split it into planar parts
--> FOAM Warning : 
    From function virtual void Foam::wedgePolyPatch::calcGeometry(Foam::PstreamBuffers&)
    in file meshes/polyMesh/polyPatches/constraint/wedge/wedgePolyPatch.C at line 70
    Wedge patch 'rWedge' is not planar.
At local face at (0.0220395 0.0101753 0.000355329) the normal (1.34328e-08 -0.0348995 0.999391) differs from the average normal (-4.5879e-12 -0.0348995 0.999391) by 1.00276e-15
Either correct the patch or split it into planar parts
--> FOAM Warning : 
    From function virtual void Foam::wedgePolyPatch::calcGeometry(Foam::PstreamBuffers&)
    in file meshes/polyMesh/polyPatches/constraint/wedge/wedgePolyPatch.C at line 70
    Wedge patch 'rWedge' is not planar.
At local face at (0.0287664 0.0133201 0.000465147) the normal (-1.60611e-08 -0.0348995 0.999391) differs from the average normal (-4.5879e-12 -0.0348995 0.999391) by 1.41666e-15
Either correct the patch or split it into planar parts
--> FOAM Warning : 
    From function virtual void Foam::wedgePolyPatch::calcGeometry(Foam::PstreamBuffers&)
    in file meshes/polyMesh/polyPatches/constraint/wedge/wedgePolyPatch.C at line 70
    Wedge patch 'rWedge' is not planar.
At local face at (0.0327313 0.0151736 0.000529874) the normal (-1.55336e-08 -0.0348995 0.999391) differs from the average normal (-4.5879e-12 -0.0348995 0.999391) by 1.36999e-15
Either correct the patch or split it into planar parts
--> FOAM Warning : 
    From function virtual void Foam::wedgePolyPatch::calcGeometry(Foam::PstreamBuffers&)
    in file meshes/polyMesh/polyPatches/constraint/wedge/wedgePolyPatch.C at line 70
    Wedge patch 'rWedge' is not planar.
At local face at (0.0221165 0.0102032 0.000356302) the normal (-1.4172e-08 -0.0348995 0.999391) differs from the average normal (-4.5879e-12 -0.0348995 0.999391) by 1.13605e-15
Either correct the patch or split it into planar parts
--> FOAM Warning : 
    From function virtual void Foam::wedgePolyPatch::calcGeometry(Foam::PstreamBuffers&)
    in file meshes/polyMesh/polyPatches/constraint/wedge/wedgePolyPatch.C at line 70
    Wedge patch 'rWedge' is not planar.
At local face at (0.0257997 0.0119247 0.000416421) the normal (-1.42386e-08 -0.0348995 0.999391) differs from the average normal (-4.5879e-12 -0.0348995 0.999391) by 1.13556e-15
Either correct the patch or split it into planar parts
--> FOAM Warning : 
    From function virtual void Foam::wedgePolyPatch::calcGeometry(Foam::PstreamBuffers&)
    in file meshes/polyMesh/polyPatches/constraint/wedge/wedgePolyPatch.C at line 70
    Wedge patch 'rWedge' is not planar.
At local face at (0.0269985 0.0124851 0.000435989) the normal (-1.50956e-08 -0.0348995 0.999391) differs from the average normal (-4.5879e-12 -0.0348995 0.999391) by 1.18177e-15
Either correct the patch or split it into planar parts
--> FOAM Warning : 
    From function virtual void Foam::wedgePolyPatch::calcGeometry(Foam::PstreamBuffers&)
    in file meshes/polyMesh/polyPatches/constraint/wedge/wedgePolyPatch.C at line 70
    Wedge patch 'rWedge' is not planar.
At local face at (0.0286673 0.0132651 0.000463227) the normal (1.58593e-08 -0.0348995 0.999391) differs from the average normal (-4.5879e-12 -0.0348995 0.999391) by 1.44437e-15
Either correct the patch or split it into planar parts
--> FOAM Warning : 
    From function virtual void Foam::wedgePolyPatch::calcGeometry(Foam::PstreamBuffers&)
    in file meshes/polyMesh/polyPatches/constraint/wedge/wedgePolyPatch.C at line 70
    Wedge patch 'rWedge' is not planar.
At local face at (0.0287691 0.0133127 0.00046489) the normal (1.50243e-08 -0.0348995 0.999391) differs from the average normal (-4.5879e-12 -0.0348995 0.999391) by 1.25352e-15
Either correct the patch or split it into planar parts
--> FOAM Warning : 
    From function virtual void Foam::wedgePolyPatch::calcGeometry(Foam::PstreamBuffers&)
    in file meshes/polyMesh/polyPatches/constraint/wedge/wedgePolyPatch.C at line 70
    Wedge patch 'rWedge' is not planar.
At local face at (0.021971 0.0101272 0.000353649) the normal (-1.35051e-08 -0.0348995 0.999391) differs from the average normal (-4.5879e-12 -0.0348995 0.999391) by 1.14088e-15
Either correct the patch or split it into planar parts
--> FOAM Warning : 
    From function virtual void Foam::wedgePolyPatch::calcGeometry(Foam::PstreamBuffers&)
    in file meshes/polyMesh/polyPatches/constraint/wedge/wedgePolyPatch.C at line 70
    Wedge patch 'rWedge' is not planar.
At local face at (0.0286699 0.0132579 0.000462976) the normal (-1.38783e-08 -0.0348995 0.999391) differs from the average normal (-4.5879e-12 -0.0348995 0.999391) by 1.05862e-15
Either correct the patch or split it into planar parts
--> FOAM Warning : 
    From function virtual void Foam::wedgePolyPatch::calcGeometry(Foam::PstreamBuffers&)
    in file meshes/polyMesh/polyPatches/constraint/wedge/wedgePolyPatch.C at line 70
    Wedge patch 'rWedge' is not planar.
At local face at (0.0307903 0.0142488 0.00049758) the normal (1.33244e-08 -0.0348995 0.999391) differs from the average normal (-4.5879e-12 -0.0348995 0.999391) by 1.03842e-15
Either correct the patch or split it into planar parts
--> FOAM Warning : 
    From function virtual void Foam::wedgePolyPatch::calcGeometry(Foam::PstreamBuffers&)
    in file meshes/polyMesh/polyPatches/constraint/wedge/wedgePolyPatch.C at line 70
    Wedge patch 'rWedge' is not planar.
At local face at (0.0221219 0.0101899 0.000355838) the normal (1.40139e-08 -0.0348995 0.999391) differs from the average normal (-4.5879e-12 -0.0348995 0.999391) by 1.03104e-15
Either correct the patch or split it into planar parts
--> FOAM Warning : 
    From function virtual void Foam::wedgePolyPatch::calcGeometry(Foam::PstreamBuffers&)
    in file meshes/polyMesh/polyPatches/constraint/wedge/wedgePolyPatch.C at line 70
    Wedge patch 'rWedge' is not planar.
At local face at (0.0221965 0.0102247 0.000357055) the normal (1.37865e-08 -0.0348995 0.999391) differs from the average normal (-4.5879e-12 -0.0348995 0.999391) by 1.13878e-15
Either correct the patch or split it into planar parts
--> FOAM Warning : 
    From function virtual void Foam::wedgePolyPatch::calcGeometry(Foam::PstreamBuffers&)
    in file meshes/polyMesh/polyPatches/constraint/wedge/wedgePolyPatch.C at line 70
    Wedge patch 'rWedge' is not planar.
At local face at (0.0236741 0.0109152 0.000381167) the normal (-1.7137e-08 -0.0348995 0.999391) differs from the average normal (-4.5879e-12 -0.0348995 0.999391) by 1.47592e-15
Either correct the patch or split it into planar parts
--> FOAM Warning : 
    From function virtual void Foam::wedgePolyPatch::calcGeometry(Foam::PstreamBuffers&)
    in file meshes/polyMesh/polyPatches/constraint/wedge/wedgePolyPatch.C at line 70
    Wedge patch 'rWedge' is not planar.
At local face at (0.0233559 0.0107587 0.000375703) the normal (-1.45147e-08 -0.0348995 0.999391) differs from the average normal (-4.5879e-12 -0.0348995 0.999391) by 1.13171e-15
Either correct the patch or split it into planar parts
--> FOAM Warning : 
    From function virtual void Foam::wedgePolyPatch::calcGeometry(Foam::PstreamBuffers&)
    in file meshes/polyMesh/polyPatches/constraint/wedge/wedgePolyPatch.C at line 70
    Wedge patch 'rWedge' is not planar.
At local face at (0.0253635 0.0116967 0.000408459) the normal (1.61812e-08 -0.0348995 0.999391) differs from the average normal (-4.5879e-12 -0.0348995 0.999391) by 1.39697e-15
Either correct the patch or split it into planar parts
--> FOAM Warning : 
    From function virtual void Foam::wedgePolyPatch::calcGeometry(Foam::PstreamBuffers&)
    in file meshes/polyMesh/polyPatches/constraint/wedge/wedgePolyPatch.C at line 70
    Wedge patch 'rWedge' is not planar.
At local face at (0.0265376 0.0122453 0.000427615) the normal (1.50636e-08 -0.0348995 0.999391) differs from the average normal (-4.5879e-12 -0.0348995 0.999391) by 1.18601e-15
Either correct the patch or split it into planar parts
--> FOAM Warning : 
    From function virtual void Foam::wedgePolyPatch::calcGeometry(Foam::PstreamBuffers&)
    in file meshes/polyMesh/polyPatches/constraint/wedge/wedgePolyPatch.C at line 70
    Wedge patch 'rWedge' is not planar.
At local face at (0.0335839 0.0155375 0.000542581) the normal (1.48227e-08 -0.0348995 0.999391) differs from the average normal (-4.5879e-12 -0.0348995 0.999391) by 1.25888e-15
Either correct the patch or split it into planar parts
--> FOAM Warning : 
    From function virtual void Foam::wedgePolyPatch::calcGeometry(Foam::PstreamBuffers&)
    in file meshes/polyMesh/polyPatches/constraint/wedge/wedgePolyPatch.C at line 70
    Wedge patch 'rWedge' is not planar.
At local face at (0.0222766 0.010247 0.000357832) the normal (-1.28611e-08 -0.0348995 0.999391) differs from the average normal (-4.5879e-12 -0.0348995 0.999391) by 1.03987e-15
Either correct the patch or split it into planar parts
--> FOAM Warning : 
    From function virtual void Foam::wedgePolyPatch::calcGeometry(Foam::PstreamBuffers&)
    in file meshes/polyMesh/polyPatches/constraint/wedge/wedgePolyPatch.C at line 70
    Wedge patch 'rWedge' is not planar.
At local face at (0.0245051 0.011288 0.000394187) the normal (-1.57531e-08 -0.0348995 0.999391) differs from the average normal (-4.5879e-12 -0.0348995 0.999391) by 1.51366e-15
Either correct the patch or split it into planar parts
--> FOAM Warning : 
    From function virtual void Foam::wedgePolyPatch::calcGeometry(Foam::PstreamBuffers&)
    in file meshes/polyMesh/polyPatches/constraint/wedge/wedgePolyPatch.C at line 70
    Wedge patch 'rWedge' is not planar.
At local face at (0.0342031 0.0158186 0.000552396) the normal (1.37657e-08 -0.0348995 0.999391) differs from the average normal (-4.5879e-12 -0.0348995 0.999391) by 1.02052e-15
Either correct the patch or split it into planar parts
--> FOAM Warning : 
    From function virtual void Foam::wedgePolyPatch::calcGeometry(Foam::PstreamBuffers&)
    in file meshes/polyMesh/polyPatches/constraint/wedge/wedgePolyPatch.C at line 70
    Wedge patch 'rWedge' is not planar.
At local face at (0.0373491 0.0172882 0.000603718) the normal (-1.54404e-08 -0.0348995 0.999391) differs from the average normal (-4.5879e-12 -0.0348995 0.999391) by 1.32131e-15
Either correct the patch or split it into planar parts
--> FOAM Warning : 
    From function virtual void Foam::wedgePolyPatch::calcGeometry(Foam::PstreamBuffers&)
    in file meshes/polyMesh/polyPatches/constraint/wedge/wedgePolyPatch.C at line 70
    Wedge patch 'rWedge' is not planar.
At local face at (0.0232025 0.0106721 0.000372678) the normal (-1.4819e-08 -0.0348995 0.999391) differs from the average normal (-4.5879e-12 -0.0348995 0.999391) by 1.27085e-15
Either correct the patch or split it into planar parts
--> FOAM Warning : 
    From function virtual void Foam::wedgePolyPatch::calcGeometry(Foam::PstreamBuffers&)
    in file meshes/polyMesh/polyPatches/constraint/wedge/wedgePolyPatch.C at line 70
    Wedge patch 'rWedge' is not planar.
At local face at (0.0270113 0.0124512 0.000434806) the normal (1.53266e-08 -0.0348995 0.999391) differs from the average normal (-4.5879e-12 -0.0348995 0.999391) by 1.3676e-15
Either correct the patch or split it into planar parts
--> FOAM Warning : 
    From function virtual void Foam::wedgePolyPatch::calcGeometry(Foam::PstreamBuffers&)
    in file meshes/polyMesh/polyPatches/constraint/wedge/wedgePolyPatch.C at line 70
    Wedge patch 'rWedge' is not planar.
At local face at (0.0287818 0.0132782 0.000463686) the normal (1.28096e-08 -0.0348995 0.999391) differs from the average normal (-4.5879e-12 -0.0348995 0.999391) by 1.0325e-15
Either correct the patch or split it into planar parts
--> FOAM Warning : 
    From function virtual void Foam::wedgePolyPatch::calcGeometry(Foam::PstreamBuffers&)
    in file meshes/polyMesh/polyPatches/constraint/wedge/wedgePolyPatch.C at line 70
    Wedge patch 'rWedge' is not planar.
At local face at (0.0397776 0.0184143 0.000643043) the normal (1.64673e-08 -0.0348995 0.999391) differs from the average normal (-4.5879e-12 -0.0348995 0.999391) by 1.47435e-15
Either correct the patch or split it into planar parts
--> FOAM Warning : 
    From function virtual void Foam::wedgePolyPatch::calcGeometry(Foam::PstreamBuffers&)
    in file meshes/polyMesh/polyPatches/constraint/wedge/wedgePolyPatch.C at line 70
    Wedge patch 'rWedge' is not planar.
At local face at (0.0240104 0.0110422 0.000385601) the normal (1.65833e-08 -0.0348995 0.999391) differs from the average normal (-4.5879e-12 -0.0348995 0.999391) by 1.40201e-15
Either correct the patch or split it into planar parts
--> FOAM Warning : 
    From function virtual void Foam::wedgePolyPatch::calcGeometry(Foam::PstreamBuffers&)
    in file meshes/polyMesh/polyPatches/constraint/wedge/wedgePolyPatch.C at line 70
    Wedge patch 'rWedge' is not planar.
At local face at (0.0270137 0.0124449 0.000434584) the normal (-1.88616e-08 -0.0348995 0.999391) differs from the average normal (-4.5879e-12 -0.0348995 0.999391) by 1.89041e-15
Either correct the patch or split it into planar parts
--> FOAM Warning : 
    From function virtual void Foam::wedgePolyPatch::calcGeometry(Foam::PstreamBuffers&)
    in file meshes/polyMesh/polyPatches/constraint/wedge/wedgePolyPatch.C at line 70
    Wedge patch 'rWedge' is not planar.
At local face at (0.0271086 0.0124892 0.000436132) the normal (-1.82742e-08 -0.0348995 0.999391) differs from the average normal (-4.5879e-12 -0.0348995 0.999391) by 1.84367e-15
Either correct the patch or split it into planar parts
--> FOAM Warning : 
    From function virtual void Foam::wedgePolyPatch::calcGeometry(Foam::PstreamBuffers&)
    in file meshes/polyMesh/polyPatches/constraint/wedge/wedgePolyPatch.C at line 70
    Wedge patch 'rWedge' is not planar.
At local face at (0.0327488 0.0151234 0.000528121) the normal (1.57059e-08 -0.0348995 0.999391) differs from the average normal (-4.5879e-12 -0.0348995 0.999391) by 1.42328e-15
Either correct the patch or split it into planar parts
--> FOAM Warning : 
    From function virtual void Foam::wedgePolyPatch::calcGeometry(Foam::PstreamBuffers&)
    in file meshes/polyMesh/polyPatches/constraint/wedge/wedgePolyPatch.C at line 70
    Wedge patch 'rWedge' is not planar.
At local face at (0.0348376 0.016099 0.000562188) the normal (1.57933e-08 -0.0348995 0.999391) differs from the average normal (-4.5879e-12 -0.0348995 0.999391) by 1.35804e-15
Either correct the patch or split it into planar parts
--> FOAM Warning : 
    From function virtual void Foam::wedgePolyPatch::calcGeometry(Foam::PstreamBuffers&)
    in file meshes/polyMesh/polyPatches/constraint/wedge/wedgePolyPatch.C at line 70
    Wedge patch 'rWedge' is not planar.
At local face at (0.0397798 0.0184072 0.000642794) the normal (-1.41279e-08 -0.0348995 0.999391) differs from the average normal (-4.5879e-12 -0.0348995 0.999391) by 1.09762e-15
Either correct the patch or split it into planar parts
--> FOAM Warning : 
    From function virtual void Foam::wedgePolyPatch::calcGeometry(Foam::PstreamBuffers&)
    in file meshes/polyMesh/polyPatches/constraint/wedge/wedgePolyPatch.C at line 70
    Wedge patch 'rWedge' is not planar.
At local face at (0.0446707 0.0206915 0.000722562) the normal (-1.36196e-08 -0.0348995 0.999391) differs from the average normal (-4.5879e-12 -0.0348995 0.999391) by 1.0276e-15
Either correct the patch or split it into planar parts
--> FOAM Warning : 
    From function virtual void Foam::wedgePolyPatch::calcGeometry(Foam::PstreamBuffers&)
    in file meshes/polyMesh/polyPatches/constraint/wedge/wedgePolyPatch.C at line 70
    Wedge patch 'rWedge' is not planar.
At local face at (0.0245969 0.0113089 0.000394916) the normal (-1.44125e-08 -0.0348995 0.999391) differs from the average normal (-4.5879e-12 -0.0348995 0.999391) by 1.20444e-15
Either correct the patch or split it into planar parts
--> FOAM Warning : 
    From function virtual void Foam::wedgePolyPatch::calcGeometry(Foam::PstreamBuffers&)
    in file meshes/polyMesh/polyPatches/constraint/wedge/wedgePolyPatch.C at line 70
    Wedge patch 'rWedge' is not planar.
At local face at (0.0252856 0.0116305 0.000406147) the normal (-1.33953e-08 -0.0348995 0.999391) differs from the average normal (-4.5879e-12 -0.0348995 0.999391) by 1.00461e-15
Either correct the patch or split it into planar parts
--> FOAM Warning : 
    From function virtual void Foam::wedgePolyPatch::calcGeometry(Foam::PstreamBuffers&)
    in file meshes/polyMesh/polyPatches/constraint/wedge/wedgePolyPatch.C at line 70
    Wedge patch 'rWedge' is not planar.
At local face at (0.0277866 0.0127985 0.000446933) the normal (-1.46314e-08 -0.0348995 0.999391) differs from the average normal (-4.5879e-12 -0.0348995 0.999391) by 1.15541e-15
Either correct the patch or split it into planar parts
--> FOAM Warning : 
    From function virtual void Foam::wedgePolyPatch::calcGeometry(Foam::PstreamBuffers&)
    in file meshes/polyMesh/polyPatches/constraint/wedge/wedgePolyPatch.C at line 70
    Wedge patch 'rWedge' is not planar.
At local face at (0.0285832 0.0131705 0.000459924) the normal (1.42978e-08 -0.0348995 0.999391) differs from the average normal (-4.5879e-12 -0.0348995 0.999391) by 1.0595e-15
Either correct the patch or split it into planar parts
--> FOAM Warning : 
    From function virtual void Foam::wedgePolyPatch::calcGeometry(Foam::PstreamBuffers&)
    in file meshes/polyMesh/polyPatches/constraint/wedge/wedgePolyPatch.C at line 70
    Wedge patch 'rWedge' is not planar.
At local face at (0.0369453 0.0170755 0.000596291) the normal (-1.5441e-08 -0.0348995 0.999391) differs from the average normal (-4.5879e-12 -0.0348995 0.999391) by 1.39602e-15
Either correct the patch or split it into planar parts
--> FOAM Warning : 
    From function virtual void Foam::wedgePolyPatch::calcGeometry(Foam::PstreamBuffers&)
    in file meshes/polyMesh/polyPatches/constraint/wedge/wedgePolyPatch.C at line 70
    Wedge patch 'rWedge' is not planar.
At local face at (0.0373559 0.0172673 0.000602987) the normal (1.64058e-08 -0.0348995 0.999391) differs from the average normal (-4.5879e-12 -0.0348995 0.999391) by 1.52648e-15
Either correct the patch or split it into planar parts
--> FOAM Warning : 
    From function virtual void Foam::wedgePolyPatch::calcGeometry(Foam::PstreamBuffers&)
    in file meshes/polyMesh/polyPatches/constraint/wedge/wedgePolyPatch.C at line 70
    Wedge patch 'rWedge' is not planar.
At local face at (0.0374939 0.0173317 0.000605237) the normal (1.39134e-08 -0.0348995 0.999391) differs from the average normal (-4.5879e-12 -0.0348995 0.999391) by 1.11255e-15
Either correct the patch or split it into planar parts
--> FOAM Warning : 
    From function virtual void Foam::wedgePolyPatch::calcGeometry(Foam::PstreamBuffers&)
    in file meshes/polyMesh/polyPatches/constraint/wedge/wedgePolyPatch.C at line 70
    Wedge patch 'rWedge' is not planar.
At local face at (0.0383342 0.0177241 0.00061894) the normal (-1.47054e-08 -0.0348995 0.999391) differs from the average normal (-4.5879e-12 -0.0348995 0.999391) by 1.22462e-15
Either correct the patch or split it into planar parts
--> FOAM Warning : 
    From function virtual void Foam::wedgePolyPatch::calcGeometry(Foam::PstreamBuffers&)
    in file meshes/polyMesh/polyPatches/constraint/wedge/wedgePolyPatch.C at line 70
    Wedge patch 'rWedge' is not planar.
At local face at (0.0240975 0.0110687 0.000386529) the normal (1.4739e-08 -0.0348995 0.999391) differs from the average normal (-4.5879e-12 -0.0348995 0.999391) by 1.20943e-15
Either correct the patch or split it into planar parts
--> FOAM Warning : 
    From function virtual void Foam::wedgePolyPatch::calcGeometry(Foam::PstreamBuffers&)
    in file meshes/polyMesh/polyPatches/constraint/wedge/wedgePolyPatch.C at line 70
    Wedge patch 'rWedge' is not planar.
At local face at (0.0261816 0.0120419 0.000420512) the normal (1.68838e-08 -0.0348995 0.999391) differs from the average normal (-4.5879e-12 -0.0348995 0.999391) by 1.61053e-15
Either correct the patch or split it into planar parts
--> FOAM Warning : 
    From function virtual void Foam::wedgePolyPatch::calcGeometry(Foam::PstreamBuffers&)
    in file meshes/polyMesh/polyPatches/constraint/wedge/wedgePolyPatch.C at line 70
    Wedge patch 'rWedge' is not planar.
At local face at (0.0281839 0.0129768 0.00045316) the normal (1.79427e-08 -0.0348995 0.999391) differs from the average normal (-4.5879e-12 -0.0348995 0.999391) by 1.57562e-15
Either correct the patch or split it into planar parts
--> FOAM Warning : 
    From function virtual void Foam::wedgePolyPatch::calcGeometry(Foam::PstreamBuffers&)
    in file meshes/polyMesh/polyPatches/constraint/wedge/wedgePolyPatch.C at line 70
    Wedge patch 'rWedge' is not planar.
At local face at (0.035485 0.016386 0.000572212) the normal (-1.42874e-08 -0.0348995 0.999391) differs from the average normal (-4.5879e-12 -0.0348995 0.999391) by 1.16221e-15
Either correct the patch or split it into planar parts
--> FOAM Warning : 
    From function virtual void Foam::wedgePolyPatch::calcGeometry(Foam::PstreamBuffers&)
    in file meshes/polyMesh/polyPatches/constraint/wedge/wedgePolyPatch.C at line 70
    Wedge patch 'rWedge' is not planar.
At local face at (0.0356152 0.0164468 0.000574335) the normal (-1.69777e-08 -0.0348995 0.999391) differs from the average normal (-4.5879e-12 -0.0348995 0.999391) by 1.68583e-15
Either correct the patch or split it into planar parts
--> FOAM Warning : 
    From function virtual void Foam::wedgePolyPatch::calcGeometry(Foam::PstreamBuffers&)
    in file meshes/polyMesh/polyPatches/constraint/wedge/wedgePolyPatch.C at line 70
    Wedge patch 'rWedge' is not planar.
At local face at (0.0357459 0.0165079 0.000576467) the normal (-1.72869e-08 -0.0348995 0.999391) differs from the average normal (-4.5879e-12 -0.0348995 0.999391) by 1.63396e-15
Either correct the patch or split it into planar parts
--> FOAM Warning : 
    From function virtual void Foam::wedgePolyPatch::calcGeometry(Foam::PstreamBuffers&)
    in file meshes/polyMesh/polyPatches/constraint/wedge/wedgePolyPatch.C at line 70
    Wedge patch 'rWedge' is not planar.
At local face at (0.0425469 0.0196835 0.000687363) the normal (-1.39457e-08 -0.0348995 0.999391) differs from the average normal (-4.5879e-12 -0.0348995 0.999391) by 1.04807e-15
Either correct the patch or split it into planar parts
--> FOAM Warning : 
    From function virtual void Foam::wedgePolyPatch::calcGeometry(Foam::PstreamBuffers&)
    in file meshes/polyMesh/polyPatches/constraint/wedge/wedgePolyPatch.C at line 70
    Wedge patch 'rWedge' is not planar.
At local face at (0.0229768 0.0105386 0.000368017) the normal (-1.24923e-08 -0.0348995 0.999391) differs from the average normal (-4.5879e-12 -0.0348995 0.999391) by 1.16816e-15
Either correct the patch or split it into planar parts
--> FOAM Warning : 
    From function virtual void Foam::wedgePolyPatch::calcGeometry(Foam::PstreamBuffers&)
    in file meshes/polyMesh/polyPatches/constraint/wedge/wedgePolyPatch.C at line 70
    Wedge patch 'rWedge' is not planar.
At local face at (0.0246863 0.0113368 0.00039589) the normal (1.71976e-08 -0.0348995 0.999391) differs from the average normal (-4.5879e-12 -0.0348995 0.999391) by 1.51118e-15
Either correct the patch or split it into planar parts
--> FOAM Warning : 
    From function virtual void Foam::wedgePolyPatch::calcGeometry(Foam::PstreamBuffers&)
    in file meshes/polyMesh/polyPatches/constraint/wedge/wedgePolyPatch.C at line 70
    Wedge patch 'rWedge' is not planar.
At local face at (0.024943 0.0114566 0.000400074) the normal (1.70354e-08 -0.0348995 0.999391) differs from the average normal (-4.5879e-12 -0.0348995 0.999391) by 1.45411e-15
Either correct the patch or split it into planar parts
--> FOAM Warning : 
    From function virtual void Foam::wedgePolyPatch::calcGeometry(Foam::PstreamBuffers&)
    in file meshes/polyMesh/polyPatches/constraint/wedge/wedgePolyPatch.C at line 70
    Wedge patch 'rWedge' is not planar.
At local face at (0.0261839 0.012036 0.000420306) the normal (-1.81924e-08 -0.0348995 0.999391) differs from the average normal (-4.5879e-12 -0.0348995 0.999391) by 1.82086e-15
Either correct the patch or split it into planar parts
--> FOAM Warning : 
    From function virtual void Foam::wedgePolyPatch::calcGeometry(Foam::PstreamBuffers&)
    in file meshes/polyMesh/polyPatches/constraint/wedge/wedgePolyPatch.C at line 70
    Wedge patch 'rWedge' is not planar.
At local face at (0.0262753 0.0120787 0.000421797) the normal (-1.45989e-08 -0.0348995 0.999391) differs from the average normal (-4.5879e-12 -0.0348995 0.999391) by 1.04137e-15
Either correct the patch or split it into planar parts
--> FOAM Warning : 
    From function virtual void Foam::wedgePolyPatch::calcGeometry(Foam::PstreamBuffers&)
    in file meshes/polyMesh/polyPatches/constraint/wedge/wedgePolyPatch.C at line 70
    Wedge patch 'rWedge' is not planar.
At local face at (0.0274992 0.0126501 0.000441751) the normal (-1.46831e-08 -0.0348995 0.999391) differs from the average normal (-4.5879e-12 -0.0348995 0.999391) by 1.28174e-15
Either correct the patch or split it into planar parts
--> FOAM Warning : 
    From function virtual void Foam::wedgePolyPatch::calcGeometry(Foam::PstreamBuffers&)
    in file meshes/polyMesh/polyPatches/constraint/wedge/wedgePolyPatch.C at line 70
    Wedge patch 'rWedge' is not planar.
At local face at (0.0283861 0.0130642 0.000456211) the normal (1.41248e-08 -0.0348995 0.999391) differs from the average normal (-4.5879e-12 -0.0348995 0.999391) by 1.10282e-15
Either correct the patch or split it into planar parts
--> FOAM Warning : 
    From function virtual void Foam::wedgePolyPatch::calcGeometry(Foam::PstreamBuffers&)
    in file meshes/polyMesh/polyPatches/constraint/wedge/wedgePolyPatch.C at line 70
    Wedge patch 'rWedge' is not planar.
At local face at (0.0288933 0.013301 0.000464482) the normal (1.74967e-08 -0.0348995 0.999391) differs from the average normal (-4.5879e-12 -0.0348995 0.999391) by 1.5667e-15
Either correct the patch or split it into planar parts
--> FOAM Warning : 
    From function virtual void Foam::wedgePolyPatch::calcGeometry(Foam::PstreamBuffers&)
    in file meshes/polyMesh/polyPatches/constraint/wedge/wedgePolyPatch.C at line 70
    Wedge patch 'rWedge' is not planar.
At local face at (0.031708 0.0146152 0.000510373) the normal (-1.3187e-08 -0.0348995 0.999391) differs from the average normal (-4.5879e-12 -0.0348995 0.999391) by 1.00996e-15
Either correct the patch or split it into planar parts
--> FOAM Warning : 
    From function virtual void Foam::wedgePolyPatch::calcGeometry(Foam::PstreamBuffers&)
    in file meshes/polyMesh/polyPatches/constraint/wedge/wedgePolyPatch.C at line 70
    Wedge patch 'rWedge' is not planar.
At local face at (0.0319374 0.0147223 0.000514113) the normal (-1.55632e-08 -0.0348995 0.999391) differs from the average normal (-4.5879e-12 -0.0348995 0.999391) by 1.22775e-15
Either correct the patch or split it into planar parts
--> FOAM Warning : 
    From function virtual void Foam::wedgePolyPatch::calcGeometry(Foam::PstreamBuffers&)
    in file meshes/polyMesh/polyPatches/constraint/wedge/wedgePolyPatch.C at line 70
    Wedge patch 'rWedge' is not planar.
At local face at (0.0320528 0.0147762 0.000515995) the normal (-1.49455e-08 -0.0348995 0.999391) differs from the average normal (-4.5879e-12 -0.0348995 0.999391) by 1.296e-15
Either correct the patch or split it into planar parts
--> FOAM Warning : 
    From function virtual void Foam::wedgePolyPatch::calcGeometry(Foam::PstreamBuffers&)
    in file meshes/polyMesh/polyPatches/constraint/wedge/wedgePolyPatch.C at line 70
    Wedge patch 'rWedge' is not planar.
At local face at (0.0353575 0.0163191 0.000569874) the normal (1.77125e-08 -0.0348995 0.999391) differs from the average normal (-4.5879e-12 -0.0348995 0.999391) by 1.70611e-15
Either correct the patch or split it into planar parts
--> FOAM Warning : 
    From function virtual void Foam::wedgePolyPatch::calcGeometry(Foam::PstreamBuffers&)
    in file meshes/polyMesh/polyPatches/constraint/wedge/wedgePolyPatch.C at line 70
    Wedge patch 'rWedge' is not planar.
At local face at (0.0362765 0.0167482 0.000584859) the normal (1.51983e-08 -0.0348995 0.999391) differs from the average normal (-4.5879e-12 -0.0348995 0.999391) by 1.12369e-15
Either correct the patch or split it into planar parts
--> FOAM Warning : 
    From function virtual void Foam::wedgePolyPatch::calcGeometry(Foam::PstreamBuffers&)
    in file meshes/polyMesh/polyPatches/constraint/wedge/wedgePolyPatch.C at line 70
    Wedge patch 'rWedge' is not planar.
At local face at (0.037776 0.0174482 0.000609306) the normal (-1.35656e-08 -0.0348995 0.999391) differs from the average normal (-4.5879e-12 -0.0348995 0.999391) by 1.10522e-15
Either correct the patch or split it into planar parts
--> FOAM Warning : 
    From function virtual void Foam::wedgePolyPatch::calcGeometry(Foam::PstreamBuffers&)
    in file meshes/polyMesh/polyPatches/constraint/wedge/wedgePolyPatch.C at line 70
    Wedge patch 'rWedge' is not planar.
At local face at (0.0405331 0.0187355 0.000654258) the normal (1.66391e-08 -0.0348995 0.999391) differs from the average normal (-4.5879e-12 -0.0348995 0.999391) by 1.55296e-15
Either correct the patch or split it into planar parts
--> FOAM Warning : 
    From function virtual void Foam::wedgePolyPatch::calcGeometry(Foam::PstreamBuffers&)
    in file meshes/polyMesh/polyPatches/constraint/wedge/wedgePolyPatch.C at line 70
    Wedge patch 'rWedge' is not planar.
At local face at (0.0427086 0.0197513 0.000689729) the normal (1.43031e-08 -0.0348995 0.999391) differs from the average normal (-4.5879e-12 -0.0348995 0.999391) by 1.13233e-15
Either correct the patch or split it into planar parts
--> FOAM Warning : 
    From function virtual void Foam::wedgePolyPatch::calcGeometry(Foam::PstreamBuffers&)
    in file meshes/polyMesh/polyPatches/constraint/wedge/wedgePolyPatch.C at line 70
    Wedge patch 'rWedge' is not planar.
At local face at (0.0232932 0.0106797 0.000372944) the normal (-1.77085e-08 -0.0348995 0.999391) differs from the average normal (-4.5879e-12 -0.0348995 0.999391) by 1.55399e-15
Either correct the patch or split it into planar parts
--> FOAM Warning : 
    From function virtual void Foam::wedgePolyPatch::calcGeometry(Foam::PstreamBuffers&)
    in file meshes/polyMesh/polyPatches/constraint/wedge/wedgePolyPatch.C at line 70
    Wedge patch 'rWedge' is not planar.
At local face at (0.0256454 0.0117778 0.00041129) the normal (2.09811e-08 -0.0348995 0.999391) differs from the average normal (-4.5879e-12 -0.0348995 0.999391) by 2.59026e-15
Either correct the patch or split it into planar parts
--> FOAM Warning : 
    From function virtual void Foam::wedgePolyPatch::calcGeometry(Foam::PstreamBuffers&)
    in file meshes/polyMesh/polyPatches/constraint/wedge/wedgePolyPatch.C at line 70
    Wedge patch 'rWedge' is not planar.
At local face at (0.031145 0.0143453 0.000500948) the normal (1.54614e-08 -0.0348995 0.999391) differs from the average normal (-4.5879e-12 -0.0348995 0.999391) by 1.23337e-15
Either correct the patch or split it into planar parts
--> FOAM Warning : 
    From function virtual void Foam::wedgePolyPatch::calcGeometry(Foam::PstreamBuffers&)
    in file meshes/polyMesh/polyPatches/constraint/wedge/wedgePolyPatch.C at line 70
    Wedge patch 'rWedge' is not planar.
At local face at (0.0349738 0.0161327 0.000563367) the normal (-1.36727e-08 -0.0348995 0.999391) differs from the average normal (-4.5879e-12 -0.0348995 0.999391) by 1.06444e-15
Either correct the patch or split it into planar parts
--> FOAM Warning : 
    From function virtual void Foam::wedgePolyPatch::calcGeometry(Foam::PstreamBuffers&)
    in file meshes/polyMesh/polyPatches/constraint/wedge/wedgePolyPatch.C at line 70
    Wedge patch 'rWedge' is not planar.
At local face at (0.042871 0.0198194 0.00069211) the normal (-1.56426e-08 -0.0348995 0.999391) differs from the average normal (-4.5879e-12 -0.0348995 0.999391) by 1.27735e-15
Either correct the patch or split it into planar parts
--> FOAM Warning : 
    From function virtual void Foam::wedgePolyPatch::calcGeometry(Foam::PstreamBuffers&)
    in file meshes/polyMesh/polyPatches/constraint/wedge/wedgePolyPatch.C at line 70
    Wedge patch 'rWedge' is not planar.
At local face at (0.0438469 0.020275 0.00070802) the normal (1.67529e-08 -0.0348995 0.999391) differs from the average normal (-4.5879e-12 -0.0348995 0.999391) by 1.54596e-15
Either correct the patch or split it into planar parts
--> FOAM Warning : 
    From function virtual void Foam::wedgePolyPatch::calcGeometry(Foam::PstreamBuffers&)
    in file meshes/polyMesh/polyPatches/constraint/wedge/wedgePolyPatch.C at line 70
    Wedge patch 'rWedge' is not planar.
At local face at (0.0448475 0.0207422 0.000724332) the normal (-1.74944e-08 -0.0348995 0.999391) differs from the average normal (-4.5879e-12 -0.0348995 0.999391) by 1.78402e-15
Either correct the patch or split it into planar parts
--> FOAM Warning : 
    From function virtual void Foam::wedgePolyPatch::calcGeometry(Foam::PstreamBuffers&)
    in file meshes/polyMesh/polyPatches/constraint/wedge/wedgePolyPatch.C at line 70
    Wedge patch 'rWedge' is not planar.
At local face at (0.0463959 0.0214651 0.000749576) the normal (1.35355e-08 -0.0348995 0.999391) differs from the average normal (-4.5879e-12 -0.0348995 0.999391) by 1.0389e-15
Either correct the patch or split it into planar parts
--> FOAM Warning : 
    From function virtual void Foam::wedgePolyPatch::calcGeometry(Foam::PstreamBuffers&)
    in file meshes/polyMesh/polyPatches/constraint/wedge/wedgePolyPatch.C at line 70
    Wedge patch 'rWedge' is not planar.
At local face at (0.046748 0.0216294 0.000755315) the normal (-1.37168e-08 -0.0348995 0.999391) differs from the average normal (-4.5879e-12 -0.0348995 0.999391) by 1.06591e-15
Either correct the patch or split it into planar parts
--> FOAM Warning : 
    From function virtual void Foam::wedgePolyPatch::calcGeometry(Foam::PstreamBuffers&)
    in file meshes/polyMesh/polyPatches/constraint/wedge/wedgePolyPatch.C at line 70
    Wedge patch 'rWedge' is not planar.
At local face at (0.0469251 0.0217121 0.000758203) the normal (-1.96675e-08 -0.0348995 0.999391) differs from the average normal (-4.5879e-12 -0.0348995 0.999391) by 2.15923e-15
Either correct the patch or split it into planar parts
--> FOAM Warning : 
    From function virtual void Foam::wedgePolyPatch::calcGeometry(Foam::PstreamBuffers&)
    in file meshes/polyMesh/polyPatches/constraint/wedge/wedgePolyPatch.C at line 70
    Wedge patch 'rWedge' is not planar.
At local face at (0.0487374 0.0225582 0.000787749) the normal (-1.4496e-08 -0.0348995 0.999391) differs from the average normal (-4.5879e-12 -0.0348995 0.999391) by 1.2311e-15
Either correct the patch or split it into planar parts
--> FOAM Warning : 
    From function virtual void Foam::wedgePolyPatch::calcGeometry(Foam::PstreamBuffers&)
    in file meshes/polyMesh/polyPatches/constraint/wedge/wedgePolyPatch.C at line 70
    Wedge patch 'rWedge' is not planar.
At local face at (0.0220693 0.0101019 0.000352766) the normal (1.71744e-08 -0.0348995 0.999391) differs from the average normal (-4.5879e-12 -0.0348995 0.999391) by 1.78287e-15
Either correct the patch or split it into planar parts
--> FOAM Warning : 
    From function virtual void Foam::wedgePolyPatch::calcGeometry(Foam::PstreamBuffers&)
    in file meshes/polyMesh/polyPatches/constraint/wedge/wedgePolyPatch.C at line 70
    Wedge patch 'rWedge' is not planar.
At local face at (0.0222182 0.0101714 0.000355192) the normal (-1.56988e-08 -0.0348995 0.999391) differs from the average normal (-4.5879e-12 -0.0348995 0.999391) by 1.36431e-15
Either correct the patch or split it into planar parts
--> FOAM Warning : 
    From function virtual void Foam::wedgePolyPatch::calcGeometry(Foam::PstreamBuffers&)
    in file meshes/polyMesh/polyPatches/constraint/wedge/wedgePolyPatch.C at line 70
    Wedge patch 'rWedge' is not planar.
At local face at (0.0229812 0.0105276 0.00036763) the normal (-1.32608e-08 -0.0348995 0.999391) differs from the average normal (-4.5879e-12 -0.0348995 0.999391) by 1.10431e-15
Either correct the patch or split it into planar parts
--> FOAM Warning : 
    From function virtual void Foam::wedgePolyPatch::calcGeometry(Foam::PstreamBuffers&)
    in file meshes/polyMesh/polyPatches/constraint/wedge/wedgePolyPatch.C at line 70
    Wedge patch 'rWedge' is not planar.
At local face at (0.0230593 0.010564 0.000368903) the normal (-1.32219e-08 -0.0348995 0.999391) differs from the average normal (-4.5879e-12 -0.0348995 0.999391) by 1.00479e-15
Either correct the patch or split it into planar parts
--> FOAM Warning : 
    From function virtual void Foam::wedgePolyPatch::calcGeometry(Foam::PstreamBuffers&)
    in file meshes/polyMesh/polyPatches/constraint/wedge/wedgePolyPatch.C at line 70
    Wedge patch 'rWedge' is not planar.
At local face at (0.0269304 0.012371 0.000432006) the normal (1.49874e-08 -0.0348995 0.999391) differs from the average normal (-4.5879e-12 -0.0348995 0.999391) by 1.25502e-15
Either correct the patch or split it into planar parts
--> FOAM Warning : 
    From function virtual void Foam::wedgePolyPatch::calcGeometry(Foam::PstreamBuffers&)
    in file meshes/polyMesh/polyPatches/constraint/wedge/wedgePolyPatch.C at line 70
    Wedge patch 'rWedge' is not planar.
At local face at (0.0275035 0.0126386 0.000441348) the normal (1.66716e-08 -0.0348995 0.999391) differs from the average normal (-4.5879e-12 -0.0348995 0.999391) by 1.47308e-15
Either correct the patch or split it into planar parts
--> FOAM Warning : 
    From function virtual void Foam::wedgePolyPatch::calcGeometry(Foam::PstreamBuffers&)
    in file meshes/polyMesh/polyPatches/constraint/wedge/wedgePolyPatch.C at line 70
    Wedge patch 'rWedge' is not planar.
At local face at (0.0342186 0.0157732 0.000550811) the normal (1.39852e-08 -0.0348995 0.999391) differs from the average normal (-4.5879e-12 -0.0348995 0.999391) by 1.13234e-15
Either correct the patch or split it into planar parts
--> FOAM Warning : 
    From function virtual void Foam::wedgePolyPatch::calcGeometry(Foam::PstreamBuffers&)
    in file meshes/polyMesh/polyPatches/constraint/wedge/wedgePolyPatch.C at line 70
    Wedge patch 'rWedge' is not planar.
At local face at (0.0351039 0.0161864 0.000565242) the normal (1.50709e-08 -0.0348995 0.999391) differs from the average normal (-4.5879e-12 -0.0348995 0.999391) by 1.17348e-15
Either correct the patch or split it into planar parts
--> FOAM Warning : 
    From function virtual void Foam::wedgePolyPatch::calcGeometry(Foam::PstreamBuffers&)
    in file meshes/polyMesh/polyPatches/constraint/wedge/wedgePolyPatch.C at line 70
    Wedge patch 'rWedge' is not planar.
At local face at (0.0399384 0.0184431 0.000644049) the normal (-1.82029e-08 -0.0348995 0.999391) differs from the average normal (-4.5879e-12 -0.0348995 0.999391) by 1.73285e-15
Either correct the patch or split it into planar parts
--> FOAM Warning : 
    From function virtual void Foam::wedgePolyPatch::calcGeometry(Foam::PstreamBuffers&)
    in file meshes/polyMesh/polyPatches/constraint/wedge/wedgePolyPatch.C at line 70
    Wedge patch 'rWedge' is not planar.
At local face at (0.0400872 0.0185126 0.000646473) the normal (-1.46708e-08 -0.0348995 0.999391) differs from the average normal (-4.5879e-12 -0.0348995 0.999391) by 1.26196e-15
Either correct the patch or split it into planar parts
--> FOAM Warning : 
    From function virtual void Foam::wedgePolyPatch::calcGeometry(Foam::PstreamBuffers&)
    in file meshes/polyMesh/polyPatches/constraint/wedge/wedgePolyPatch.C at line 70
    Wedge patch 'rWedge' is not planar.
At local face at (0.0403865 0.0186523 0.000651353) the normal (-1.38149e-08 -0.0348995 0.999391) differs from the average normal (-4.5879e-12 -0.0348995 0.999391) by 1.15074e-15
Either correct the patch or split it into planar parts
--> FOAM Warning : 
    From function virtual void Foam::wedgePolyPatch::calcGeometry(Foam::PstreamBuffers&)
    in file meshes/polyMesh/polyPatches/constraint/wedge/wedgePolyPatch.C at line 70
    Wedge patch 'rWedge' is not planar.
At local face at (0.0428729 0.019813 0.000691884) the normal (1.33803e-08 -0.0348995 0.999391) differs from the average normal (-4.5879e-12 -0.0348995 0.999391) by 1.08044e-15
Either correct the patch or split it into planar parts
--> FOAM Warning : 
    From function virtual void Foam::wedgePolyPatch::calcGeometry(Foam::PstreamBuffers&)
    in file meshes/polyMesh/polyPatches/constraint/wedge/wedgePolyPatch.C at line 70
    Wedge patch 'rWedge' is not planar.
At local face at (0.0438488 0.0202685 0.000707792) the normal (-1.72521e-08 -0.0348995 0.999391) differs from the average normal (-4.5879e-12 -0.0348995 0.999391) by 1.60236e-15
Either correct the patch or split it into planar parts
--> FOAM Warning : 
    From function virtual void Foam::wedgePolyPatch::calcGeometry(Foam::PstreamBuffers&)
    in file meshes/polyMesh/polyPatches/constraint/wedge/wedgePolyPatch.C at line 70
    Wedge patch 'rWedge' is not planar.
At local face at (0.0226744 0.0103779 0.000362406) the normal (2.159e-08 -0.0348995 0.999391) differs from the average normal (-4.5879e-12 -0.0348995 0.999391) by 2.45799e-15
Either correct the patch or split it into planar parts
--> FOAM Warning : 
    From function virtual void Foam::wedgePolyPatch::calcGeometry(Foam::PstreamBuffers&)
    in file meshes/polyMesh/polyPatches/constraint/wedge/wedgePolyPatch.C at line 70
    Wedge patch 'rWedge' is not planar.
At local face at (0.0227511 0.0104138 0.000363657) the normal (1.51177e-08 -0.0348995 0.999391) differs from the average normal (-4.5879e-12 -0.0348995 0.999391) by 1.23342e-15
Either correct the patch or split it into planar parts
--> FOAM Warning : 
    From function virtual void Foam::wedgePolyPatch::calcGeometry(Foam::PstreamBuffers&)
    in file meshes/polyMesh/polyPatches/constraint/wedge/wedgePolyPatch.C at line 70
    Wedge patch 'rWedge' is not planar.
At local face at (0.0238602 0.0109314 0.000381735) the normal (-2.22087e-08 -0.0348994 0.999391) differs from the average normal (-4.5879e-12 -0.0348995 0.999391) by 2.68826e-15
Either correct the patch or split it into planar parts
--> FOAM Warning : 
    From function virtual void Foam::wedgePolyPatch::calcGeometry(Foam::PstreamBuffers&)
    in file meshes/polyMesh/polyPatches/constraint/wedge/wedgePolyPatch.C at line 70
    Wedge patch 'rWedge' is not planar.
At local face at (0.0241064 0.0110464 0.000385747) the normal (1.55649e-08 -0.0348995 0.999391) differs from the average normal (-4.5879e-12 -0.0348995 0.999391) by 1.37725e-15
Either correct the patch or split it into planar parts
--> FOAM Warning : 
    From function virtual void Foam::wedgePolyPatch::calcGeometry(Foam::PstreamBuffers&)
    in file meshes/polyMesh/polyPatches/constraint/wedge/wedgePolyPatch.C at line 70
    Wedge patch 'rWedge' is not planar.
At local face at (0.0252967 0.0116019 0.000405149) the normal (1.77937e-08 -0.0348995 0.999391) differs from the average normal (-4.5879e-12 -0.0348995 0.999391) by 1.83678e-15
Either correct the patch or split it into planar parts
--> FOAM Warning : 
    From function virtual void Foam::wedgePolyPatch::calcGeometry(Foam::PstreamBuffers&)
    in file meshes/polyMesh/polyPatches/constraint/wedge/wedgePolyPatch.C at line 70
    Wedge patch 'rWedge' is not planar.
At local face at (0.0260993 0.0119766 0.000418231) the normal (-1.28083e-08 -0.0348995 0.999391) differs from the average normal (-4.5879e-12 -0.0348995 0.999391) by 1.077e-15
Either correct the patch or split it into planar parts
--> FOAM Warning : 
    From function virtual void Foam::wedgePolyPatch::calcGeometry(Foam::PstreamBuffers&)
    in file meshes/polyMesh/polyPatches/constraint/wedge/wedgePolyPatch.C at line 70
    Wedge patch 'rWedge' is not planar.
At local face at (0.0292092 0.0134281 0.00046892) the normal (-1.67139e-08 -0.0348995 0.999391) differs from the average normal (-4.5879e-12 -0.0348995 0.999391) by 1.66008e-15
Either correct the patch or split it into planar parts
--> FOAM Warning : 
    From function virtual void Foam::wedgePolyPatch::calcGeometry(Foam::PstreamBuffers&)
    in file meshes/polyMesh/polyPatches/constraint/wedge/wedgePolyPatch.C at line 70
    Wedge patch 'rWedge' is not planar.
At local face at (0.0293132 0.0134767 0.000470615) the normal (-1.38102e-08 -0.0348995 0.999391) differs from the average normal (-4.5879e-12 -0.0348995 0.999391) by 1.08937e-15
Either correct the patch or split it into planar parts
--> FOAM Warning : 
    From function virtual void Foam::wedgePolyPatch::calcGeometry(Foam::PstreamBuffers&)
    in file meshes/polyMesh/polyPatches/constraint/wedge/wedgePolyPatch.C at line 70
    Wedge patch 'rWedge' is not planar.
At local face at (0.0298398 0.0137224 0.000479198) the normal (-1.87297e-08 -0.0348995 0.999391) differs from the average normal (-4.5879e-12 -0.0348995 0.999391) by 1.96717e-15
Either correct the patch or split it into planar parts
--> FOAM Warning : 
    From function virtual void Foam::wedgePolyPatch::calcGeometry(Foam::PstreamBuffers&)
    in file meshes/polyMesh/polyPatches/constraint/wedge/wedgePolyPatch.C at line 70
    Wedge patch 'rWedge' is not planar.
At local face at (0.0305957 0.0140752 0.000491518) the normal (1.7782e-08 -0.0348995 0.999391) differs from the average normal (-4.5879e-12 -0.0348995 0.999391) by 1.58301e-15
Either correct the patch or split it into planar parts
--> FOAM Warning : 
    From function virtual void Foam::wedgePolyPatch::calcGeometry(Foam::PstreamBuffers&)
    in file meshes/polyMesh/polyPatches/constraint/wedge/wedgePolyPatch.C at line 70
    Wedge patch 'rWedge' is not planar.
At local face at (0.0333608 0.0153659 0.000536589) the normal (1.3919e-08 -0.0348995 0.999391) differs from the average normal (-4.5879e-12 -0.0348995 0.999391) by 1.06102e-15
Either correct the patch or split it into planar parts
--> FOAM Warning : 
    From function virtual void Foam::wedgePolyPatch::calcGeometry(Foam::PstreamBuffers&)
    in file meshes/polyMesh/polyPatches/constraint/wedge/wedgePolyPatch.C at line 70
    Wedge patch 'rWedge' is not planar.
At local face at (0.0339724 0.0156514 0.000546558) the normal (1.57999e-08 -0.0348995 0.999391) differs from the average normal (-4.5879e-12 -0.0348995 0.999391) by 1.3946e-15
Either correct the patch or split it into planar parts
--> FOAM Warning : 
    From function virtual void Foam::wedgePolyPatch::calcGeometry(Foam::PstreamBuffers&)
    in file meshes/polyMesh/polyPatches/constraint/wedge/wedgePolyPatch.C at line 70
    Wedge patch 'rWedge' is not planar.
At local face at (0.0348504 0.0160612 0.000560868) the normal (1.51843e-08 -0.0348995 0.999391) differs from the average normal (-4.5879e-12 -0.0348995 0.999391) by 1.31958e-15
Either correct the patch or split it into planar parts
--> FOAM Warning : 
    From function virtual void Foam::wedgePolyPatch::calcGeometry(Foam::PstreamBuffers&)
    in file meshes/polyMesh/polyPatches/constraint/wedge/wedgePolyPatch.C at line 70
    Wedge patch 'rWedge' is not planar.
At local face at (0.0351059 0.0161804 0.000565034) the normal (-1.43302e-08 -0.0348995 0.999391) differs from the average normal (-4.5879e-12 -0.0348995 0.999391) by 1.06077e-15
Either correct the patch or split it into planar parts
--> FOAM Warning : 
    From function virtual void Foam::wedgePolyPatch::calcGeometry(Foam::PstreamBuffers&)
    in file meshes/polyMesh/polyPatches/constraint/wedge/wedgePolyPatch.C at line 70
    Wedge patch 'rWedge' is not planar.
At local face at (0.0380621 0.0175603 0.000613218) the normal (1.45311e-08 -0.0348995 0.999391) differs from the average normal (-4.5879e-12 -0.0348995 0.999391) by 1.13135e-15
Either correct the patch or split it into planar parts
--> FOAM Warning : 
    From function virtual void Foam::wedgePolyPatch::calcGeometry(Foam::PstreamBuffers&)
    in file meshes/polyMesh/polyPatches/constraint/wedge/wedgePolyPatch.C at line 70
    Wedge patch 'rWedge' is not planar.
At local face at (0.0405391 0.0187164 0.00065359) the normal (1.67205e-08 -0.0348995 0.999391) differs from the average normal (-4.5879e-12 -0.0348995 0.999391) by 1.51604e-15
Either correct the patch or split it into planar parts
--> FOAM Warning : 
    From function virtual void Foam::wedgePolyPatch::calcGeometry(Foam::PstreamBuffers&)
    in file meshes/polyMesh/polyPatches/constraint/wedge/wedgePolyPatch.C at line 70
    Wedge patch 'rWedge' is not planar.
At local face at (0.0427146 0.0197318 0.00068905) the normal (-1.4356e-08 -0.0348995 0.999391) differs from the average normal (-4.5879e-12 -0.0348995 0.999391) by 1.06965e-15
Either correct the patch or split it into planar parts
--> FOAM Warning : 
    From function virtual void Foam::wedgePolyPatch::calcGeometry(Foam::PstreamBuffers&)
    in file meshes/polyMesh/polyPatches/constraint/wedge/wedgePolyPatch.C at line 70
    Wedge patch 'rWedge' is not planar.
At local face at (0.0428749 0.0198066 0.000691662) the normal (-1.66399e-08 -0.0348995 0.999391) differs from the average normal (-4.5879e-12 -0.0348995 0.999391) by 1.49513e-15
Either correct the patch or split it into planar parts
--> FOAM Warning : 
    From function virtual void Foam::wedgePolyPatch::calcGeometry(Foam::PstreamBuffers&)
    in file meshes/polyMesh/polyPatches/constraint/wedge/wedgePolyPatch.C at line 70
    Wedge patch 'rWedge' is not planar.
At local face at (0.0514085 0.0237897 0.000830755) the normal (1.44675e-08 -0.0348995 0.999391) differs from the average normal (-4.5879e-12 -0.0348995 0.999391) by 1.20791e-15
Either correct the patch or split it into planar parts
--> FOAM Warning : 
    From function virtual void Foam::wedgePolyPatch::calcGeometry(Foam::PstreamBuffers&)
    in file meshes/polyMesh/polyPatches/constraint/wedge/wedgePolyPatch.C at line 70
    Wedge patch 'rWedge' is not planar.
At local face at (0.0222225 0.0101608 0.000354824) the normal (1.93998e-08 -0.0348995 0.999391) differs from the average normal (-4.5879e-12 -0.0348995 0.999391) by 2.18994e-15
Either correct the patch or split it into planar parts
--> FOAM Warning : 
    From function virtual void Foam::wedgePolyPatch::calcGeometry(Foam::PstreamBuffers&)
    in file meshes/polyMesh/polyPatches/constraint/wedge/wedgePolyPatch.C at line 70
    Wedge patch 'rWedge' is not planar.
At local face at (0.0229855 0.0105169 0.00036726) the normal (1.48864e-08 -0.0348995 0.999391) differs from the average normal (-4.5879e-12 -0.0348995 0.999391) by 1.38276e-15
Either correct the patch or split it into planar parts
--> FOAM Warning : 
    From function virtual void Foam::wedgePolyPatch::calcGeometry(Foam::PstreamBuffers&)
    in file meshes/polyMesh/polyPatches/constraint/wedge/wedgePolyPatch.C at line 70
    Wedge patch 'rWedge' is not planar.
At local face at (0.0238623 0.0109262 0.00038155) the normal (1.9197e-08 -0.0348995 0.999391) differs from the average normal (-4.5879e-12 -0.0348995 0.999391) by 1.94607e-15
Either correct the patch or split it into planar parts
--> FOAM Warning : 
    From function virtual void Foam::wedgePolyPatch::calcGeometry(Foam::PstreamBuffers&)
    in file meshes/polyMesh/polyPatches/constraint/wedge/wedgePolyPatch.C at line 70
    Wedge patch 'rWedge' is not planar.
At local face at (0.0292112 0.0134226 0.000468726) the normal (1.44712e-08 -0.0348995 0.999391) differs from the average normal (-4.5879e-12 -0.0348995 0.999391) by 1.01151e-15
Either correct the patch or split it into planar parts
--> FOAM Warning : 
    From function virtual void Foam::wedgePolyPatch::calcGeometry(Foam::PstreamBuffers&)
    in file meshes/polyMesh/polyPatches/constraint/wedge/wedgePolyPatch.C at line 70
    Wedge patch 'rWedge' is not planar.
At local face at (0.0298418 0.0137169 0.000479004) the normal (1.46425e-08 -0.0348995 0.999391) differs from the average normal (-4.5879e-12 -0.0348995 0.999391) by 1.13211e-15
Either correct the patch or split it into planar parts
--> FOAM Warning : 
    From function virtual void Foam::wedgePolyPatch::calcGeometry(Foam::PstreamBuffers&)
    in file meshes/polyMesh/polyPatches/constraint/wedge/wedgePolyPatch.C at line 70
    Wedge patch 'rWedge' is not planar.
At local face at (0.0314889 0.0144856 0.000505848) the normal (-1.48807e-08 -0.0348995 0.999391) differs from the average normal (-4.5879e-12 -0.0348995 0.999391) by 1.30334e-15
Either correct the patch or split it into planar parts
--> FOAM Warning : 
    From function virtual void Foam::wedgePolyPatch::calcGeometry(Foam::PstreamBuffers&)
    in file meshes/polyMesh/polyPatches/constraint/wedge/wedgePolyPatch.C at line 70
    Wedge patch 'rWedge' is not planar.
At local face at (0.0317164 0.0145917 0.000509555) the normal (-1.35359e-08 -0.0348995 0.999391) differs from the average normal (-4.5879e-12 -0.0348995 0.999391) by 1.18983e-15
Either correct the patch or split it into planar parts
--> FOAM Warning : 
    From function virtual void Foam::wedgePolyPatch::calcGeometry(Foam::PstreamBuffers&)
    in file meshes/polyMesh/polyPatches/constraint/wedge/wedgePolyPatch.C at line 70
    Wedge patch 'rWedge' is not planar.
At local face at (0.0338511 0.015588 0.000544346) the normal (-1.51488e-08 -0.0348995 0.999391) differs from the average normal (-4.5879e-12 -0.0348995 0.999391) by 1.15165e-15
Either correct the patch or split it into planar parts
--> FOAM Warning : 
    From function virtual void Foam::wedgePolyPatch::calcGeometry(Foam::PstreamBuffers&)
    in file meshes/polyMesh/polyPatches/constraint/wedge/wedgePolyPatch.C at line 70
    Wedge patch 'rWedge' is not planar.
At local face at (0.0339744 0.0156456 0.000546357) the normal (-1.72308e-08 -0.0348995 0.999391) differs from the average normal (-4.5879e-12 -0.0348995 0.999391) by 1.73798e-15
Either correct the patch or split it into planar parts
--> FOAM Warning : 
    From function virtual void Foam::wedgePolyPatch::calcGeometry(Foam::PstreamBuffers&)
    in file meshes/polyMesh/polyPatches/constraint/wedge/wedgePolyPatch.C at line 70
    Wedge patch 'rWedge' is not planar.
At local face at (0.0340983 0.0157034 0.000548375) the normal (-1.44422e-08 -0.0348995 0.999391) differs from the average normal (-4.5879e-12 -0.0348995 0.999391) by 1.07513e-15
Either correct the patch or split it into planar parts
--> FOAM Warning : 
    From function virtual void Foam::wedgePolyPatch::calcGeometry(Foam::PstreamBuffers&)
    in file meshes/polyMesh/polyPatches/constraint/wedge/wedgePolyPatch.C at line 70
    Wedge patch 'rWedge' is not planar.
At local face at (0.0343475 0.0158198 0.000552438) the normal (1.2467e-08 -0.0348995 0.999391) differs from the average normal (-4.5879e-12 -0.0348995 0.999391) by 1.00745e-15
Either correct the patch or split it into planar parts
--> FOAM Warning : 
    From function virtual void Foam::wedgePolyPatch::calcGeometry(Foam::PstreamBuffers&)
    in file meshes/polyMesh/polyPatches/constraint/wedge/wedgePolyPatch.C at line 70
    Wedge patch 'rWedge' is not planar.
At local face at (0.0393535 0.0181561 0.000634025) the normal (-1.51636e-08 -0.0348995 0.999391) differs from the average normal (-4.5879e-12 -0.0348995 0.999391) by 1.35313e-15
Either correct the patch or split it into planar parts
--> FOAM Warning : 
    From function virtual void Foam::wedgePolyPatch::calcGeometry(Foam::PstreamBuffers&)
    in file meshes/polyMesh/polyPatches/constraint/wedge/wedgePolyPatch.C at line 70
    Wedge patch 'rWedge' is not planar.
At local face at (0.040541 0.0187103 0.000653378) the normal (-1.48851e-08 -0.0348995 0.999391) differs from the average normal (-4.5879e-12 -0.0348995 0.999391) by 1.29164e-15
Either correct the patch or split it into planar parts
--> FOAM Warning : 
    From function virtual void Foam::wedgePolyPatch::calcGeometry(Foam::PstreamBuffers&)
    in file meshes/polyMesh/polyPatches/constraint/wedge/wedgePolyPatch.C at line 70
    Wedge patch 'rWedge' is not planar.
At local face at (0.0428767 0.0198004 0.000691446) the normal (1.8235e-08 -0.0348995 0.999391) differs from the average normal (-4.5879e-12 -0.0348995 0.999391) by 1.73418e-15
Either correct the patch or split it into planar parts
--> FOAM Warning : 
    From function virtual void Foam::wedgePolyPatch::calcGeometry(Foam::PstreamBuffers&)
    in file meshes/polyMesh/polyPatches/constraint/wedge/wedgePolyPatch.C at line 70
    Wedge patch 'rWedge' is not planar.
At local face at (0.0245277 0.0112305 0.000392179) the normal (1.54139e-08 -0.0348995 0.999391) differs from the average normal (-4.5879e-12 -0.0348995 0.999391) by 1.34142e-15
Either correct the patch or split it into planar parts
--> FOAM Warning : 
    From function virtual void Foam::wedgePolyPatch::calcGeometry(Foam::PstreamBuffers&)
    in file meshes/polyMesh/polyPatches/constraint/wedge/wedgePolyPatch.C at line 70
    Wedge patch 'rWedge' is not planar.
At local face at (0.0248677 0.0113892 0.000397721) the normal (1.44705e-08 -0.0348995 0.999391) differs from the average normal (-4.5879e-12 -0.0348995 0.999391) by 1.32638e-15
Either correct the patch or split it into planar parts
--> FOAM Warning : 
    From function virtual void Foam::wedgePolyPatch::calcGeometry(Foam::PstreamBuffers&)
    in file meshes/polyMesh/polyPatches/constraint/wedge/wedgePolyPatch.C at line 70
    Wedge patch 'rWedge' is not planar.
At local face at (0.0251265 0.01151 0.000401938) the normal (-1.82195e-08 -0.0348995 0.999391) differs from the average normal (-4.5879e-12 -0.0348995 0.999391) by 1.77949e-15
Either correct the patch or split it into planar parts
--> FOAM Warning : 
    From function virtual void Foam::wedgePolyPatch::calcGeometry(Foam::PstreamBuffers&)
    in file meshes/polyMesh/polyPatches/constraint/wedge/wedgePolyPatch.C at line 70
    Wedge patch 'rWedge' is not planar.
At local face at (0.025743 0.0117977 0.000411984) the normal (-1.74806e-08 -0.0348995 0.999391) differs from the average normal (-4.5879e-12 -0.0348995 0.999391) by 1.76918e-15
Either correct the patch or split it into planar parts
--> FOAM Warning : 
    From function virtual void Foam::wedgePolyPatch::calcGeometry(Foam::PstreamBuffers&)
    in file meshes/polyMesh/polyPatches/constraint/wedge/wedgePolyPatch.C at line 70
    Wedge patch 'rWedge' is not planar.
At local face at (0.0258326 0.0118395 0.000413444) the normal (-1.38633e-08 -0.0348995 0.999391) differs from the average normal (-4.5879e-12 -0.0348995 0.999391) by 1.20485e-15
Either correct the patch or split it into planar parts
--> FOAM Warning : 
    From function virtual void Foam::wedgePolyPatch::calcGeometry(Foam::PstreamBuffers&)
    in file meshes/polyMesh/polyPatches/constraint/wedge/wedgePolyPatch.C at line 70
    Wedge patch 'rWedge' is not planar.
At local face at (0.0274132 0.0125771 0.000439203) the normal (1.37927e-08 -0.0348995 0.999391) differs from the average normal (-4.5879e-12 -0.0348995 0.999391) by 1.02881e-15
Either correct the patch or split it into planar parts
--> FOAM Warning : 
    From function virtual void Foam::wedgePolyPatch::calcGeometry(Foam::PstreamBuffers&)
    in file meshes/polyMesh/polyPatches/constraint/wedge/wedgePolyPatch.C at line 70
    Wedge patch 'rWedge' is not planar.
At local face at (0.0275097 0.0126222 0.000440776) the normal (1.85479e-08 -0.0348995 0.999391) differs from the average normal (-4.5879e-12 -0.0348995 0.999391) by 1.90284e-15
Either correct the patch or split it into planar parts
--> FOAM Warning : 
    From function virtual void Foam::wedgePolyPatch::calcGeometry(Foam::PstreamBuffers&)
    in file meshes/polyMesh/polyPatches/constraint/wedge/wedgePolyPatch.C at line 70
    Wedge patch 'rWedge' is not planar.
At local face at (0.0276066 0.0126674 0.000442355) the normal (1.71289e-08 -0.0348995 0.999391) differs from the average normal (-4.5879e-12 -0.0348995 0.999391) by 1.43144e-15
Either correct the patch or split it into planar parts
--> FOAM Warning : 
    From function virtual void Foam::wedgePolyPatch::calcGeometry(Foam::PstreamBuffers&)
    in file meshes/polyMesh/polyPatches/constraint/wedge/wedgePolyPatch.C at line 70
    Wedge patch 'rWedge' is not planar.
At local face at (0.0291097 0.0133688 0.000466849) the normal (1.47415e-08 -0.0348995 0.999391) differs from the average normal (-4.5879e-12 -0.0348995 0.999391) by 1.11181e-15
Either correct the patch or split it into planar parts
--> FOAM Warning : 
    From function virtual void Foam::wedgePolyPatch::calcGeometry(Foam::PstreamBuffers&)
    in file meshes/polyMesh/polyPatches/constraint/wedge/wedgePolyPatch.C at line 70
    Wedge patch 'rWedge' is not planar.
At local face at (0.0294217 0.0135144 0.000471934) the normal (1.73815e-08 -0.0348995 0.999391) differs from the average normal (-4.5879e-12 -0.0348995 0.999391) by 1.76636e-15
Either correct the patch or split it into planar parts
--> FOAM Warning : 
[...]
--> FOAM Warning : 
    From function virtual void Foam::wedgePolyPatch::calcGeometry(Foam::PstreamBuffers&)
    in file meshes/polyMesh/polyPatches/constraint/wedge/wedgePolyPatch.C at line 70
    Wedge patch 'lWedge' is not planar.
At local face at (0.03985 0.0181879 -0.000635134) the normal (5.0714e-08 -0.0348996 -0.999391) differs from the average normal (-4.58733e-12 -0.0348995 -0.999391) by 1.4542e-14
Either correct the patch or split it into planar parts
--> FOAM Warning : 
    From function virtual void Foam::wedgePolyPatch::calcGeometry(Foam::PstreamBuffers&)
    in file meshes/polyMesh/polyPatches/constraint/wedge/wedgePolyPatch.C at line 70
    Wedge patch 'lWedge' is not planar.
At local face at (0.0399981 0.0182568 -0.000637543) the normal (3.1473e-08 -0.0348996 -0.999391) differs from the average normal (-4.58733e-12 -0.0348995 -0.999391) by 5.8479e-15
Either correct the patch or split it into planar parts
--> FOAM Warning : 
    From function virtual void Foam::wedgePolyPatch::calcGeometry(Foam::PstreamBuffers&)
    in file meshes/polyMesh/polyPatches/constraint/wedge/wedgePolyPatch.C at line 70
    Wedge patch 'lWedge' is not planar.
At local face at (0.0404459 0.0184655 -0.000644831) the normal (-3.39519e-08 -0.0348994 -0.999391) differs from the average normal (-4.58733e-12 -0.0348995 -0.999391) by 6.46268e-15
Either correct the patch or split it into planar parts
--> FOAM Warning : 
    From function virtual void Foam::wedgePolyPatch::calcGeometry(Foam::PstreamBuffers&)
    in file meshes/polyMesh/polyPatches/constraint/wedge/wedgePolyPatch.C at line 70
    Wedge patch 'lWedge' is not planar.
At local face at (0.0405964 0.0185357 -0.000647281) the normal (-3.71606e-08 -0.0348994 -0.999391) differs from the average normal (-4.58733e-12 -0.0348995 -0.999391) by 7.48545e-15
Either correct the patch or split it into planar parts
--> FOAM Warning : 
    From function virtual void Foam::wedgePolyPatch::calcGeometry(Foam::PstreamBuffers&)
    in file meshes/polyMesh/polyPatches/constraint/wedge/wedgePolyPatch.C at line 70
    Wedge patch 'lWedge' is not planar.
At local face at (0.0407476 0.0186061 -0.00064974) the normal (2.03319e-08 -0.0348995 -0.999391) differs from the average normal (-4.58733e-12 -0.0348995 -0.999391) by 2.12894e-15
Either correct the patch or split it into planar parts
--> FOAM Warning : 
    From function virtual void Foam::wedgePolyPatch::calcGeometry(Foam::PstreamBuffers&)
    in file meshes/polyMesh/polyPatches/constraint/wedge/wedgePolyPatch.C at line 70
    Wedge patch 'lWedge' is not planar.
At local face at (0.0408994 0.0186769 -0.00065221) the normal (4.85713e-08 -0.0348996 -0.999391) differs from the average normal (-4.58733e-12 -0.0348995 -0.999391) by 1.33625e-14
Either correct the patch or split it into planar parts
--> FOAM Warning : 
    From function virtual void Foam::wedgePolyPatch::calcGeometry(Foam::PstreamBuffers&)
    in file meshes/polyMesh/polyPatches/constraint/wedge/wedgePolyPatch.C at line 70
    Wedge patch 'lWedge' is not planar.
At local face at (0.0413585 0.0188908 -0.000659682) the normal (2.54678e-08 -0.0348996 -0.999391) differs from the average normal (-4.58733e-12 -0.0348995 -0.999391) by 3.68226e-15
Either correct the patch or split it into planar parts
--> FOAM Warning : 
    From function virtual void Foam::wedgePolyPatch::calcGeometry(Foam::PstreamBuffers&)
    in file meshes/polyMesh/polyPatches/constraint/wedge/wedgePolyPatch.C at line 70
    Wedge patch 'lWedge' is not planar.
At local face at (0.0418234 0.0191075 -0.000667248) the normal (1.3437e-08 -0.0348995 -0.999391) differs from the average normal (-4.58733e-12 -0.0348995 -0.999391) by 1.01035e-15
Either correct the patch or split it into planar parts
--> FOAM Warning : 
    From function virtual void Foam::wedgePolyPatch::calcGeometry(Foam::PstreamBuffers&)
    in file meshes/polyMesh/polyPatches/constraint/wedge/wedgePolyPatch.C at line 70
    Wedge patch 'lWedge' is not planar.
At local face at (0.0426112 0.0194746 -0.00068007) the normal (-2.43524e-08 -0.0348994 -0.999391) differs from the average normal (-4.58733e-12 -0.0348995 -0.999391) by 3.24148e-15
Either correct the patch or split it into planar parts
--> FOAM Warning : 
    From function virtual void Foam::wedgePolyPatch::calcGeometry(Foam::PstreamBuffers&)
    in file meshes/polyMesh/polyPatches/constraint/wedge/wedgePolyPatch.C at line 70
    Wedge patch 'lWedge' is not planar.
At local face at (0.0432534 0.0197739 -0.00069052) the normal (-1.58552e-08 -0.0348995 -0.999391) differs from the average normal (-4.58733e-12 -0.0348995 -0.999391) by 1.45717e-15
Either correct the patch or split it into planar parts
--> FOAM Warning : 
    From function virtual void Foam::wedgePolyPatch::calcGeometry(Foam::PstreamBuffers&)
    in file meshes/polyMesh/polyPatches/constraint/wedge/wedgePolyPatch.C at line 70
    Wedge patch 'lWedge' is not planar.
At local face at (0.0435785 0.0199254 -0.000695811) the normal (2.3284e-08 -0.0348995 -0.999391) differs from the average normal (-4.58733e-12 -0.0348995 -0.999391) by 2.86907e-15
Either correct the patch or split it into planar parts
--> FOAM Warning : 
    From function virtual void Foam::wedgePolyPatch::calcGeometry(Foam::PstreamBuffers&)
    in file meshes/polyMesh/polyPatches/constraint/wedge/wedgePolyPatch.C at line 70
    Wedge patch 'lWedge' is not planar.
At local face at (0.0437421 0.0200017 -0.000698473) the normal (4.15758e-08 -0.0348996 -0.999391) differs from the average normal (-4.58733e-12 -0.0348995 -0.999391) by 9.88775e-15
Either correct the patch or split it into planar parts
--> FOAM Warning : 
    From function virtual void Foam::wedgePolyPatch::calcGeometry(Foam::PstreamBuffers&)
    in file meshes/polyMesh/polyPatches/constraint/wedge/wedgePolyPatch.C at line 70
    Wedge patch 'lWedge' is not planar.
At local face at (0.0440713 0.0201551 -0.000703831) the normal (-3.65274e-08 -0.0348994 -0.999391) differs from the average normal (-4.58733e-12 -0.0348995 -0.999391) by 7.28563e-15
Either correct the patch or split it into planar parts
--> FOAM Warning : 
    From function virtual void Foam::wedgePolyPatch::calcGeometry(Foam::PstreamBuffers&)
    in file meshes/polyMesh/polyPatches/constraint/wedge/wedgePolyPatch.C at line 70
    Wedge patch 'lWedge' is not planar.
At local face at (0.0444033 0.0203098 -0.000709233) the normal (2.40395e-08 -0.0348995 -0.999391) differs from the average normal (-4.58733e-12 -0.0348995 -0.999391) by 3.32405e-15
Either correct the patch or split it into planar parts
--> FOAM Warning : 
    From function virtual void Foam::wedgePolyPatch::calcGeometry(Foam::PstreamBuffers&)
    in file meshes/polyMesh/polyPatches/constraint/wedge/wedgePolyPatch.C at line 70
    Wedge patch 'lWedge' is not planar.
At local face at (0.0445703 0.0203876 -0.000711951) the normal (4.39523e-08 -0.0348996 -0.999391) differs from the average normal (-4.58733e-12 -0.0348995 -0.999391) by 1.08476e-14
Either correct the patch or split it into planar parts
--> FOAM Warning : 
    From function virtual void Foam::wedgePolyPatch::calcGeometry(Foam::PstreamBuffers&)
    in file meshes/polyMesh/polyPatches/constraint/wedge/wedgePolyPatch.C at line 70
    Wedge patch 'lWedge' is not planar.
At local face at (0.044738 0.0204658 -0.00071468) the normal (3.68465e-08 -0.0348996 -0.999391) differs from the average normal (-4.58733e-12 -0.0348995 -0.999391) by 7.68548e-15
Either correct the patch or split it into planar parts
--> FOAM Warning : 
    From function virtual void Foam::wedgePolyPatch::calcGeometry(Foam::PstreamBuffers&)
    in file meshes/polyMesh/polyPatches/constraint/wedge/wedgePolyPatch.C at line 70
    Wedge patch 'lWedge' is not planar.
At local face at (0.0450755 0.0206231 -0.000720173) the normal (-4.54364e-08 -0.0348994 -0.999391) differs from the average normal (-4.58733e-12 -0.0348995 -0.999391) by 1.18158e-14
Either correct the patch or split it into planar parts
--> FOAM Warning : 
    From function virtual void Foam::wedgePolyPatch::calcGeometry(Foam::PstreamBuffers&)
    in file meshes/polyMesh/polyPatches/constraint/wedge/wedgePolyPatch.C at line 70
    Wedge patch 'lWedge' is not planar.
At local face at (0.0452453 0.0207022 -0.000722936) the normal (-3.77318e-08 -0.0348994 -0.999391) differs from the average normal (-4.58733e-12 -0.0348995 -0.999391) by 7.62374e-15
Either correct the patch or split it into planar parts
--> FOAM Warning : 
    From function virtual void Foam::wedgePolyPatch::calcGeometry(Foam::PstreamBuffers&)
    in file meshes/polyMesh/polyPatches/constraint/wedge/wedgePolyPatch.C at line 70
    Wedge patch 'lWedge' is not planar.
At local face at (0.0454159 0.0207817 -0.000725712) the normal (-5.39707e-08 -0.0348994 -0.999391) differs from the average normal (-4.58733e-12 -0.0348995 -0.999391) by 1.65016e-14
Either correct the patch or split it into planar parts
--> FOAM Warning : 
    From function virtual void Foam::wedgePolyPatch::calcGeometry(Foam::PstreamBuffers&)
    in file meshes/polyMesh/polyPatches/constraint/wedge/wedgePolyPatch.C at line 70
    Wedge patch 'lWedge' is not planar.
At local face at (0.0455871 0.0208615 -0.000728498) the normal (-5.01942e-08 -0.0348994 -0.999391) differs from the average normal (-4.58733e-12 -0.0348995 -0.999391) by 1.42317e-14
Either correct the patch or split it into planar parts
--> FOAM Warning : 
    From function virtual void Foam::wedgePolyPatch::calcGeometry(Foam::PstreamBuffers&)
    in file meshes/polyMesh/polyPatches/constraint/wedge/wedgePolyPatch.C at line 70
    Wedge patch 'lWedge' is not planar.
At local face at (0.045759 0.0209416 -0.000731296) the normal (-1.52032e-08 -0.0348995 -0.999391) differs from the average normal (-4.58733e-12 -0.0348995 -0.999391) by 1.18942e-15
Either correct the patch or split it into planar parts
--> FOAM Warning : 
    From function virtual void Foam::wedgePolyPatch::calcGeometry(Foam::PstreamBuffers&)
    in file meshes/polyMesh/polyPatches/constraint/wedge/wedgePolyPatch.C at line 70
    Wedge patch 'lWedge' is not planar.
At local face at (0.0466296 0.0213473 -0.000745464) the normal (3.27661e-08 -0.0348996 -0.999391) differs from the average normal (-4.58733e-12 -0.0348995 -0.999391) by 5.86518e-15
Either correct the patch or split it into planar parts
--> FOAM Warning : 
    From function virtual void Foam::wedgePolyPatch::calcGeometry(Foam::PstreamBuffers&)
    in file meshes/polyMesh/polyPatches/constraint/wedge/wedgePolyPatch.C at line 70
    Wedge patch 'lWedge' is not planar.
At local face at (0.0468059 0.0214294 -0.000748333) the normal (4.23845e-08 -0.0348996 -0.999391) differs from the average normal (-4.58733e-12 -0.0348995 -0.999391) by 9.8078e-15
Either correct the patch or split it into planar parts
--> FOAM Warning : 
    From function virtual void Foam::wedgePolyPatch::calcGeometry(Foam::PstreamBuffers&)
    in file meshes/polyMesh/polyPatches/constraint/wedge/wedgePolyPatch.C at line 70
    Wedge patch 'lWedge' is not planar.
At local face at (0.0476984 0.0218454 -0.000762858) the normal (3.11383e-08 -0.0348996 -0.999391) differs from the average normal (-4.58733e-12 -0.0348995 -0.999391) by 5.45966e-15
Either correct the patch or split it into planar parts
--> FOAM Warning : 
    From function virtual void Foam::wedgePolyPatch::calcGeometry(Foam::PstreamBuffers&)
    in file meshes/polyMesh/polyPatches/constraint/wedge/wedgePolyPatch.C at line 70
    Wedge patch 'lWedge' is not planar.
At local face at (0.0478792 0.0219296 -0.000765799) the normal (3.58701e-08 -0.0348996 -0.999391) differs from the average normal (-4.58733e-12 -0.0348995 -0.999391) by 7.11353e-15
Either correct the patch or split it into planar parts
--> FOAM Warning : 
    From function virtual void Foam::wedgePolyPatch::calcGeometry(Foam::PstreamBuffers&)
    in file meshes/polyMesh/polyPatches/constraint/wedge/wedgePolyPatch.C at line 70
    Wedge patch 'lWedge' is not planar.
At local face at (0.0480607 0.0220142 -0.000768753) the normal (2.37375e-08 -0.0348995 -0.999391) differs from the average normal (-4.58733e-12 -0.0348995 -0.999391) by 3.24076e-15
Either correct the patch or split it into planar parts
--> FOAM Warning : 
    From function virtual void Foam::wedgePolyPatch::calcGeometry(Foam::PstreamBuffers&)
    in file meshes/polyMesh/polyPatches/constraint/wedge/wedgePolyPatch.C at line 70
    Wedge patch 'lWedge' is not planar.
At local face at (0.0482429 0.0220991 -0.000771719) the normal (-1.32879e-08 -0.0348995 -0.999391) differs from the average normal (-4.58733e-12 -0.0348995 -0.999391) by 1.10353e-15
Either correct the patch or split it into planar parts
--> FOAM Warning : 
    From function virtual void Foam::wedgePolyPatch::calcGeometry(Foam::PstreamBuffers&)
    in file meshes/polyMesh/polyPatches/constraint/wedge/wedgePolyPatch.C at line 70
    Wedge patch 'lWedge' is not planar.
At local face at (0.0484259 0.0221844 -0.000774697) the normal (-2.0513e-08 -0.0348995 -0.999391) differs from the average normal (-4.58733e-12 -0.0348995 -0.999391) by 2.2924e-15
Either correct the patch or split it into planar parts
--> FOAM Warning : 
    From function virtual void Foam::wedgePolyPatch::calcGeometry(Foam::PstreamBuffers&)
    in file meshes/polyMesh/polyPatches/constraint/wedge/wedgePolyPatch.C at line 70
    Wedge patch 'lWedge' is not planar.
At local face at (0.0486097 0.0222701 -0.000777688) the normal (-4.24404e-08 -0.0348994 -0.999391) differs from the average normal (-4.58733e-12 -0.0348995 -0.999391) by 1.0014e-14
Either correct the patch or split it into planar parts
--> FOAM Warning : 
    From function virtual void Foam::wedgePolyPatch::calcGeometry(Foam::PstreamBuffers&)
    in file meshes/polyMesh/polyPatches/constraint/wedge/wedgePolyPatch.C at line 70
    Wedge patch 'lWedge' is not planar.
At local face at (0.0487943 0.0223561 -0.000780691) the normal (-2.72596e-08 -0.0348994 -0.999391) differs from the average normal (-4.58733e-12 -0.0348995 -0.999391) by 4.09682e-15
Either correct the patch or split it into planar parts
--> FOAM Warning : 
    From function virtual void Foam::wedgePolyPatch::calcGeometry(Foam::PstreamBuffers&)
    in file meshes/polyMesh/polyPatches/constraint/wedge/wedgePolyPatch.C at line 70
    Wedge patch 'lWedge' is not planar.
At local face at (0.0493525 0.0226162 -0.000789776) the normal (-3.97571e-08 -0.0348994 -0.999391) differs from the average normal (-4.58733e-12 -0.0348995 -0.999391) by 8.80334e-15
Either correct the patch or split it into planar parts
--> FOAM Warning : 
    From function virtual void Foam::wedgePolyPatch::calcGeometry(Foam::PstreamBuffers&)
    in file meshes/polyMesh/polyPatches/constraint/wedge/wedgePolyPatch.C at line 70
    Wedge patch 'lWedge' is not planar.
At local face at (0.0495402 0.0227037 -0.00079283) the normal (-1.35977e-08 -0.0348995 -0.999391) differs from the average normal (-4.58733e-12 -0.0348995 -0.999391) by 1.02662e-15
Either correct the patch or split it into planar parts
--> FOAM Warning : 
    From function virtual void Foam::wedgePolyPatch::calcGeometry(Foam::PstreamBuffers&)
    in file meshes/polyMesh/polyPatches/constraint/wedge/wedgePolyPatch.C at line 70
    Wedge patch 'lWedge' is not planar.
At local face at (0.0499178 0.0228797 -0.000798975) the normal (-2.09078e-08 -0.0348995 -0.999391) differs from the average normal (-4.58733e-12 -0.0348995 -0.999391) by 2.22453e-15
Either correct the patch or split it into planar parts
--> FOAM Warning : 
    From function virtual void Foam::wedgePolyPatch::calcGeometry(Foam::PstreamBuffers&)
    in file meshes/polyMesh/polyPatches/constraint/wedge/wedgePolyPatch.C at line 70
    Wedge patch 'lWedge' is not planar.
At local face at (0.0504902 0.0231464 -0.00080829) the normal (-1.58705e-08 -0.0348995 -0.999391) differs from the average normal (-4.58733e-12 -0.0348995 -0.999391) by 1.37657e-15
Either correct the patch or split it into planar parts
--> FOAM Warning : 
    From function virtual void Foam::wedgePolyPatch::calcGeometry(Foam::PstreamBuffers&)
    in file meshes/polyMesh/polyPatches/constraint/wedge/wedgePolyPatch.C at line 70
    Wedge patch 'lWedge' is not planar.
At local face at (0.0506825 0.0232361 -0.000811421) the normal (-4.24944e-08 -0.0348994 -0.999391) differs from the average normal (-4.58733e-12 -0.0348995 -0.999391) by 1.01878e-14
Either correct the patch or split it into planar parts
--> FOAM Warning : 
    From function virtual void Foam::wedgePolyPatch::calcGeometry(Foam::PstreamBuffers&)
    in file meshes/polyMesh/polyPatches/constraint/wedge/wedgePolyPatch.C at line 70
    Wedge patch 'lWedge' is not planar.
At local face at (0.0508757 0.0233261 -0.000814565) the normal (-3.76071e-08 -0.0348994 -0.999391) differs from the average normal (-4.58733e-12 -0.0348995 -0.999391) by 7.91497e-15
Either correct the patch or split it into planar parts
--> FOAM Warning : 
    From function virtual void Foam::wedgePolyPatch::calcGeometry(Foam::PstreamBuffers&)
    in file meshes/polyMesh/polyPatches/constraint/wedge/wedgePolyPatch.C at line 70
    Wedge patch 'lWedge' is not planar.
At local face at (0.0514601 0.0235984 -0.000824075) the normal (-1.67396e-08 -0.0348995 -0.999391) differs from the average normal (-4.58733e-12 -0.0348995 -0.999391) by 1.57546e-15
Either correct the patch or split it into planar parts
--> FOAM Warning : 
    From function virtual void Foam::wedgePolyPatch::calcGeometry(Foam::PstreamBuffers&)
    in file meshes/polyMesh/polyPatches/constraint/wedge/wedgePolyPatch.C at line 70
    Wedge patch 'lWedge' is not planar.
At local face at (0.0518538 0.0237819 -0.000830482) the normal (1.49123e-08 -0.0348995 -0.999391) differs from the average normal (-4.58733e-12 -0.0348995 -0.999391) by 1.27507e-15
Either correct the patch or split it into planar parts
Time = 0

Mesh stats
    points:           241401
    internal points:  0
    faces:            480600
    internal faces:   239200
    cells:            120000
    faces per cell:   5.99833
    boundary patches: 5
    point zones:      0
    face zones:       0
    cell zones:       1

Overall number of cells of each type:
    hexahedra:     119800
    prisms:        200
    wedges:        0
    pyramids:      0
    tet wedges:    0
    tetrahedra:    0
    polyhedra:     0

Checking topology...
    Boundary definition OK.
    Cell to face addressing OK.
    Point usage OK.
    Upper triangular ordering OK.
    Face vertices OK.
    Number of regions: 1 (OK).

Checking patch topology for multiply connected surfaces...
    Patch               Faces    Points   Surface topology                  
    cone                600      1201     ok (non-closed singly connected)  
    inlet               600      1201     ok (non-closed singly connected)  
    rWedge              120000   120801   ok (non-closed singly connected)  
    lWedge              120000   120801   ok (non-closed singly connected)  
    outlet              200      402      ok (non-closed singly connected)  

Checking geometry...
    Overall domain bounding box (0.0045 0 -0.00121467) (0.0519529 0.0347835 0.00121467)
    Mesh has 2 geometric (non-empty/wedge) directions (1 1 0)
    Mesh has 3 solution (non-empty) directions (1 1 1)
    Wedge rWedge with angle 2 degrees
    Wedge lWedge with angle 2 degrees
    All edges aligned with or perpendicular to non-empty directions.
    Boundary openness (-2.70395e-16 -1.20218e-16 -3.35838e-15) OK.
    Max cell openness = 3.51315e-15 OK.
    Max aspect ratio = 12.581 OK.
    Minimum face area = 5.15793e-12. Maximum face area = 6.778e-07.  Face area magnitudes OK.
    Min volume = 9.52305e-17. Max volume = 1.4803e-10.  Total volume = 5.06673e-07.  Cell volumes OK.
    Mesh non-orthogonality Max: 17.7074 average: 5.62308
    Non-orthogonality check OK.
    Face pyramids OK.
    Max skewness = 0.525151 OK.
    Coupled point location match (average 0) OK.

Mesh OK.

End

